McPAT (version 1.0 of Aug, 2013) is computing the target processor...
 

McPAT (version 1.0 of Aug, 2013) results  (current print level is 5)
*****************************************************************************************
  Technology 45 nm
  Using Long Channel Devices When Appropriate
  Interconnect metal projection= aggressive interconnect technology projection
  Core clock Rate(MHz) 1500

*****************************************************************************************
Processor: 
  Area = 4598.56 mm^2
  Peak Power = 866.956 W
  Total Leakage = 300.714 W
  Peak Dynamic = 566.242 W
  Subthreshold Leakage = 277.399 W
  Subthreshold Leakage with power gating = 148.176 W
  Gate Leakage = 23.3146 W
  Runtime Dynamic = 30.4034 W

  Total Cores: 64 cores 
  Device Type= ITRS high performance device type
    Area = 2766.75 mm^2
    Peak Dynamic = 566.208 W
    Subthreshold Leakage = 202.855 W
    Subthreshold Leakage with power gating = 100.221 W
    Gate Leakage = 22.445 W
    Runtime Dynamic = 30.3972 W

  Total L3s: 
  Device Type= ITRS high performance device type
    Area = 1819.02 mm^2
    Peak Dynamic = 0.0331386 W
    Subthreshold Leakage = 74.401 W
    Subthreshold Leakage with power gating = 43.5874 W
    Gate Leakage = 0.841065 W
    Runtime Dynamic = 0.00620257 W

  Total NoCs (Network/Bus): 
  Device Type= ITRS high performance device type
    Area = 12.7886 mm^2
    Peak Dynamic = 0 W
    Subthreshold Leakage = 0.143777 W
    Subthreshold Leakage with power gating = 0.0646998 W
    Gate Leakage = 0.0285903 W
    Runtime Dynamic = 5.11343e-06 W

*****************************************************************************************
Core:
      Area = 43.2304 mm^2
      Peak Dynamic = 14.2128 W
      Subthreshold Leakage = 3.16961 W
      Subthreshold Leakage with power gating = 1.56596 W
      Gate Leakage = 0.350703 W
      Runtime Dynamic = 3.79425 W

      Instruction Fetch Unit:
        Area = 8.7823 mm^2
        Peak Dynamic = 5.51372 W
        Subthreshold Leakage = 0.433903 W
        Subthreshold Leakage with power gating = 0.213688 W
        Gate Leakage = 0.0624842 W
        Runtime Dynamic = 0.483144 W

          Instruction Cache:
            Area = 4.95184 mm^2
            Peak Dynamic = 3.69966 W
            Subthreshold Leakage = 0.197988 W
            Subthreshold Leakage with power gating = 0.10139 W
            Gate Leakage = 0.035734 W
            Runtime Dynamic = 0.146981 W

          Branch Target Buffer:
            Area = 0.789969 mm^2
            Peak Dynamic = 0.0759001 W
            Subthreshold Leakage = 0.0368499 W
            Subthreshold Leakage with power gating = 0.021557 W
            Gate Leakage = 0.00333823 W
            Runtime Dynamic = 0.0176667 W

          Branch Predictor:
            Area = 0.139613 mm^2
            Peak Dynamic = 0.0253502 W
            Subthreshold Leakage = 0.00802563 W
            Subthreshold Leakage with power gating = 0.00469502 W
            Gate Leakage = 0.000631381 W
            Runtime Dynamic = 0.00604728 W

              Global Predictor:
                Area = 0.0443718 mm^2
                Peak Dynamic = 0.0073166 W
                Subthreshold Leakage = 0.00305314 W
                Subthreshold Leakage with power gating = 0.00178441 W
                Gate Leakage = 0.000231968 W
                Runtime Dynamic = 0.00182299 W

              Local Predictor:
              L1_Local Predictor:
                Area = 0.0264164 mm^2
                Peak Dynamic = 0.00596243 W
                Subthreshold Leakage = 0.00154459 W
                Subthreshold Leakage with power gating = 0.000902955 W
                Gate Leakage = 0.00012879 W
                Runtime Dynamic = 0.00152476 W

              L2_Local Predictor:
                Area = 0.0135618 mm^2
                Peak Dynamic = 0.00304081 W
                Subthreshold Leakage = 0.000782464 W
                Subthreshold Leakage with power gating = 0.000456083 W
                Gate Leakage = 6.76797e-05 W
                Runtime Dynamic = 0.000777758 W

              Chooser:
                Area = 0.0443718 mm^2
                Peak Dynamic = 0.0073166 W
                Subthreshold Leakage = 0.00305314 W
                Subthreshold Leakage with power gating = 0.00178441 W
                Gate Leakage = 0.000231968 W
                Runtime Dynamic = 0.00182299 W

              RAS:
                Area = 0.0108915 mm^2
                Peak Dynamic = 0.00475453 W
                Subthreshold Leakage = 0.000374753 W
                Subthreshold Leakage with power gating = 0.000223242 W
                Gate Leakage = 3.86548e-05 W
                Runtime Dynamic = 0.000876551 W

          Instruction Buffer:
            Area = 0.0463126 mm^2
            Peak Dynamic = 0.719463 W
            Subthreshold Leakage = 0.000993296 W
            Subthreshold Leakage with power gating = 0.000525149 W
            Gate Leakage = 9.63964e-05 W
            Runtime Dynamic = 0.116466 W

          Instruction Decoder:
            Area = 2.78698 mm^2
            Peak Dynamic = 0.807118 W
            Subthreshold Leakage = 0.178009 W
            Subthreshold Leakage with power gating = 0.080104 W
            Gate Leakage = 0.0185411 W
            Runtime Dynamic = 0.195983 W

      Renaming Unit:
        Area = 0.55916 mm^2
        Peak Dynamic = 2.68412 W
        Subthreshold Leakage = 0.0341099 W
        Subthreshold Leakage with power gating = 0.0180116 W
        Gate Leakage = 0.00878169 W
        Runtime Dynamic = 0.255873 W

          Int Front End RAT:
            Area = 0.224957 mm^2
            Peak Dynamic = 0.988468 W
            Subthreshold Leakage = 0.00388114 W
            Subthreshold Leakage with power gating = 0.00221225 W
            Gate Leakage = 0.000497349 W
            Runtime Dynamic = 0.23343 W

          FP Front End RAT:
            Area = 0.168486 mm^2
            Peak Dynamic = 1.4632 W
            Subthreshold Leakage = 0.0175733 W
            Subthreshold Leakage with power gating = 0.0100168 W
            Gate Leakage = 0.00408109 W
            Runtime Dynamic = 0 W

          Free List:
            Area = 0.098125 mm^2
            Peak Dynamic = 0.0462146 W
            Subthreshold Leakage = 0.000618071 W
            Subthreshold Leakage with power gating = 0.000365734 W
            Gate Leakage = 6.01459e-05 W
            Runtime Dynamic = 0.0224435 W

      Load Store Unit:
        Area = 8.93636 mm^2
        Peak Dynamic = 1.46183 W
        Subthreshold Leakage = 0.243502 W
        Subthreshold Leakage with power gating = 0.125782 W
        Gate Leakage = 0.0309037 W
        Runtime Dynamic = 0.558873 W

          Data Cache:
            Area = 6.93142 mm^2
            Peak Dynamic = 1.32026 W
            Subthreshold Leakage = 0.213789 W
            Subthreshold Leakage with power gating = 0.11029 W
            Gate Leakage = 0.0235117 W
            Runtime Dynamic = 0.401892 W

          LoadQ:
            Area = 0.083675 mm^2
            Peak Dynamic = 0.0264701 W
            Subthreshold Leakage = 0.00378553 W
            Subthreshold Leakage with power gating = 0.00215775 W
            Gate Leakage = 0.000499133 W
            Runtime Dynamic = 0.0264701 W

          StoreQ:
            Area = 0.322068 mm^2
            Peak Dynamic = 0.0652557 W
            Subthreshold Leakage = 0.0138897 W
            Subthreshold Leakage with power gating = 0.00791712 W
            Gate Leakage = 0.00274976 W
            Runtime Dynamic = 0.130511 W

      Memory Management Unit:
        Area = 0.216644 mm^2
        Peak Dynamic = 0.190369 W
        Subthreshold Leakage = 0.0221339 W
        Subthreshold Leakage with power gating = 0.0111719 W
        Gate Leakage = 0.00535145 W
        Runtime Dynamic = 0.0264364 W

          Itlb:
            Area = 0.0610812 mm^2
            Peak Dynamic = 0.0494861 W
            Subthreshold Leakage = 0.00383935 W
            Subthreshold Leakage with power gating = 0.00218843 W
            Gate Leakage = 0.000468934 W
            Runtime Dynamic = 0.00339318 W

          Dtlb:
            Area = 0.087971 mm^2
            Peak Dynamic = 0.022846 W
            Subthreshold Leakage = 0.0062572 W
            Subthreshold Leakage with power gating = 0.0035666 W
            Gate Leakage = 0.000739408 W
            Runtime Dynamic = 0.0230431 W

      Execution Unit:
        Area = 11.56 mm^2
        Peak Dynamic = 4.3439 W
        Subthreshold Leakage = 0.883845 W
        Subthreshold Leakage with power gating = 0.408649 W
        Gate Leakage = 0.122793 W
        Runtime Dynamic = 2.46497 W

          Register Files:
            Area = 1.17013 mm^2
            Peak Dynamic = 0.0848167 W
            Subthreshold Leakage = 0.00774319 W
            Subthreshold Leakage with power gating = 0.00363493 W
            Gate Leakage = 0.000999271 W
            Runtime Dynamic = 0.0980884 W

              Integer RF:
                Area = 0.749997 mm^2
                Peak Dynamic = 0.0848167 W
                Subthreshold Leakage = 0.00484773 W
                Subthreshold Leakage with power gating = 0.00224312 W
                Gate Leakage = 0.000645553 W
                Runtime Dynamic = 0.0867443 W

              Floating Point RF:
                Area = 0.420137 mm^2
                Peak Dynamic = 0 W
                Subthreshold Leakage = 0.00289546 W
                Subthreshold Leakage with power gating = 0.0013918 W
                Gate Leakage = 0.000353718 W
                Runtime Dynamic = 0.0113441 W

          Instruction Scheduler:
            Area = 4.66183 mm^2
            Peak Dynamic = 3.86192 W
            Subthreshold Leakage = 0.0916813 W
            Subthreshold Leakage with power gating = 0.0520251 W
            Gate Leakage = 0.0120132 W
            Runtime Dynamic = 1.19592 W

              Instruction Window:
                Area = 2.22085 mm^2
                Peak Dynamic = 1.8176 W
                Subthreshold Leakage = 0.0700879 W
                Subthreshold Leakage with power gating = 0.0399235 W
                Gate Leakage = 0.00960014 W
                Runtime Dynamic = 0.575045 W

              FP Instruction Window:
                Area = 0.328065 mm^2
                Peak Dynamic = 0.497778 W
                Subthreshold Leakage = 0.00690732 W
                Subthreshold Leakage with power gating = 0.0039106 W
                Gate Leakage = 0.000979629 W
                Runtime Dynamic = 0.233753 W

              ROB:
                Area = 2.11292 mm^2
                Peak Dynamic = 1.54653 W
                Subthreshold Leakage = 0.0146861 W
                Subthreshold Leakage with power gating = 0.00819096 W
                Gate Leakage = 0.00143341 W
                Runtime Dynamic = 0.387124 W

          Integer ALUs (Count: 9 ):
            Area = 0.706306 mm^2
            Peak Dynamic = 0.22306 W
            Subthreshold Leakage = 0.242465 W
            Subthreshold Leakage with power gating = 0.109109 W
            Gate Leakage = 0.0331614 W
            Runtime Dynamic = 0.254765 W

          Floating Point Units (FPUs) (Count: 2 ):
            Area = 4.6585 mm^2
            Peak Dynamic = 0 W
            Subthreshold Leakage = 0.3998 W
            Subthreshold Leakage with power gating = 0.17991 W
            Gate Leakage = 0.0546797 W
            Runtime Dynamic = 0.211134 W

          Complex ALUs (Mul/Div) (Count: 1 ):
            Area = 0.235435 mm^2
            Peak Dynamic = 0 W
            Subthreshold Leakage = 0.0808216 W
            Subthreshold Leakage with power gating = 0.0363697 W
            Gate Leakage = 0.0110538 W
            Runtime Dynamic = 0.140756 W

          Results Broadcast Bus:
            Area Overhead = 0.0602106 mm^2
            Peak Dynamic = 0.143955 W
            Subthreshold Leakage = 0.0492971 W
            Subthreshold Leakage with power gating = 0.0221837 W
            Gate Leakage = 0.00674225 W
            Runtime Dynamic = 0.564309 W

    L2
    Area = 8.77928 mm^2
    Peak Dynamic = 0.0188934 W
    Subthreshold Leakage = 0.797449 W
    Subthreshold Leakage with power gating = 0.44906 W
    Gate Leakage = 0.0171755 W
    Runtime Dynamic = 0.00494971 W

*****************************************************************************************
Core:
      Area = 43.2304 mm^2
      Peak Dynamic = 8.76183 W
      Subthreshold Leakage = 3.16961 W
      Subthreshold Leakage with power gating = 1.56596 W
      Gate Leakage = 0.350703 W
      Runtime Dynamic = 0.422269 W

      Instruction Fetch Unit:
        Area = 8.7823 mm^2
        Peak Dynamic = 1.62783 W
        Subthreshold Leakage = 0.433903 W
        Subthreshold Leakage with power gating = 0.213688 W
        Gate Leakage = 0.0624842 W
        Runtime Dynamic = 7.10966e-08 W

          Instruction Cache:
            Area = 4.95184 mm^2
            Peak Dynamic = 0 W
            Subthreshold Leakage = 0.197988 W
            Subthreshold Leakage with power gating = 0.10139 W
            Gate Leakage = 0.035734 W
            Runtime Dynamic = 0 W

          Branch Target Buffer:
            Area = 0.789969 mm^2
            Peak Dynamic = 0.0759001 W
            Subthreshold Leakage = 0.0368499 W
            Subthreshold Leakage with power gating = 0.021557 W
            Gate Leakage = 0.00333823 W
            Runtime Dynamic = 0 W

          Branch Predictor:
            Area = 0.139613 mm^2
            Peak Dynamic = 0.0253502 W
            Subthreshold Leakage = 0.00802563 W
            Subthreshold Leakage with power gating = 0.00469502 W
            Gate Leakage = 0.000631381 W
            Runtime Dynamic = 0 W

              Global Predictor:
                Area = 0.0443718 mm^2
                Peak Dynamic = 0.0073166 W
                Subthreshold Leakage = 0.00305314 W
                Subthreshold Leakage with power gating = 0.00178441 W
                Gate Leakage = 0.000231968 W
                Runtime Dynamic = 0 W

              Local Predictor:
              L1_Local Predictor:
                Area = 0.0264164 mm^2
                Peak Dynamic = 0.00596243 W
                Subthreshold Leakage = 0.00154459 W
                Subthreshold Leakage with power gating = 0.000902955 W
                Gate Leakage = 0.00012879 W
                Runtime Dynamic = 0 W

              L2_Local Predictor:
                Area = 0.0135618 mm^2
                Peak Dynamic = 0.00304081 W
                Subthreshold Leakage = 0.000782464 W
                Subthreshold Leakage with power gating = 0.000456083 W
                Gate Leakage = 6.76797e-05 W
                Runtime Dynamic = 0 W

              Chooser:
                Area = 0.0443718 mm^2
                Peak Dynamic = 0.0073166 W
                Subthreshold Leakage = 0.00305314 W
                Subthreshold Leakage with power gating = 0.00178441 W
                Gate Leakage = 0.000231968 W
                Runtime Dynamic = 0 W

              RAS:
                Area = 0.0108915 mm^2
                Peak Dynamic = 0.00475453 W
                Subthreshold Leakage = 0.000374753 W
                Subthreshold Leakage with power gating = 0.000223242 W
                Gate Leakage = 3.86548e-05 W
                Runtime Dynamic = 0 W

          Instruction Buffer:
            Area = 0.0463126 mm^2
            Peak Dynamic = 0.719463 W
            Subthreshold Leakage = 0.000993296 W
            Subthreshold Leakage with power gating = 0.000525149 W
            Gate Leakage = 9.63964e-05 W
            Runtime Dynamic = 0 W

          Instruction Decoder:
            Area = 2.78698 mm^2
            Peak Dynamic = 0.807118 W
            Subthreshold Leakage = 0.178009 W
            Subthreshold Leakage with power gating = 0.080104 W
            Gate Leakage = 0.0185411 W
            Runtime Dynamic = 0 W

      Renaming Unit:
        Area = 0.55916 mm^2
        Peak Dynamic = 2.68412 W
        Subthreshold Leakage = 0.0341099 W
        Subthreshold Leakage with power gating = 0.0180116 W
        Gate Leakage = 0.00878169 W
        Runtime Dynamic = 7.10966e-08 W

          Int Front End RAT:
            Area = 0.224957 mm^2
            Peak Dynamic = 0.988468 W
            Subthreshold Leakage = 0.00388114 W
            Subthreshold Leakage with power gating = 0.00221225 W
            Gate Leakage = 0.000497349 W
            Runtime Dynamic = 0 W

          FP Front End RAT:
            Area = 0.168486 mm^2
            Peak Dynamic = 1.4632 W
            Subthreshold Leakage = 0.0175733 W
            Subthreshold Leakage with power gating = 0.0100168 W
            Gate Leakage = 0.00408109 W
            Runtime Dynamic = 0 W

          Free List:
            Area = 0.098125 mm^2
            Peak Dynamic = 0.0462146 W
            Subthreshold Leakage = 0.000618071 W
            Subthreshold Leakage with power gating = 0.000365734 W
            Gate Leakage = 6.01459e-05 W
            Runtime Dynamic = 0 W

      Load Store Unit:
        Area = 8.93636 mm^2
        Peak Dynamic = 0.494853 W
        Subthreshold Leakage = 0.243502 W
        Subthreshold Leakage with power gating = 0.125782 W
        Gate Leakage = 0.0309037 W
        Runtime Dynamic = 7.10966e-08 W

          Data Cache:
            Area = 6.93142 mm^2
            Peak Dynamic = 0.494853 W
            Subthreshold Leakage = 0.213789 W
            Subthreshold Leakage with power gating = 0.11029 W
            Gate Leakage = 0.0235117 W
            Runtime Dynamic = 0 W

          LoadQ:
            Area = 0.083675 mm^2
            Peak Dynamic = 0 W
            Subthreshold Leakage = 0.00378553 W
            Subthreshold Leakage with power gating = 0.00215775 W
            Gate Leakage = 0.000499133 W
            Runtime Dynamic = 0 W

          StoreQ:
            Area = 0.322068 mm^2
            Peak Dynamic = 0 W
            Subthreshold Leakage = 0.0138897 W
            Subthreshold Leakage with power gating = 0.00791712 W
            Gate Leakage = 0.00274976 W
            Runtime Dynamic = 0 W

      Memory Management Unit:
        Area = 0.216644 mm^2
        Peak Dynamic = 0.093117 W
        Subthreshold Leakage = 0.0221339 W
        Subthreshold Leakage with power gating = 0.0111719 W
        Gate Leakage = 0.00535145 W
        Runtime Dynamic = 7.10966e-08 W

          Itlb:
            Area = 0.0610812 mm^2
            Peak Dynamic = 0 W
            Subthreshold Leakage = 0.00383935 W
            Subthreshold Leakage with power gating = 0.00218843 W
            Gate Leakage = 0.000468934 W
            Runtime Dynamic = 0 W

          Dtlb:
            Area = 0.087971 mm^2
            Peak Dynamic = 0 W
            Subthreshold Leakage = 0.0062572 W
            Subthreshold Leakage with power gating = 0.0035666 W
            Gate Leakage = 0.000739408 W
            Runtime Dynamic = 0 W

      Execution Unit:
        Area = 11.56 mm^2
        Peak Dynamic = 3.86192 W
        Subthreshold Leakage = 0.883845 W
        Subthreshold Leakage with power gating = 0.408649 W
        Gate Leakage = 0.122793 W
        Runtime Dynamic = 0.422268 W

          Register Files:
            Area = 1.17013 mm^2
            Peak Dynamic = 0 W
            Subthreshold Leakage = 0.00774319 W
            Subthreshold Leakage with power gating = 0.00363493 W
            Gate Leakage = 0.000999271 W
            Runtime Dynamic = 0 W

              Integer RF:
                Area = 0.749997 mm^2
                Peak Dynamic = 0 W
                Subthreshold Leakage = 0.00484773 W
                Subthreshold Leakage with power gating = 0.00224312 W
                Gate Leakage = 0.000645553 W
                Runtime Dynamic = 0 W

              Floating Point RF:
                Area = 0.420137 mm^2
                Peak Dynamic = 0 W
                Subthreshold Leakage = 0.00289546 W
                Subthreshold Leakage with power gating = 0.0013918 W
                Gate Leakage = 0.000353718 W
                Runtime Dynamic = 0 W

          Instruction Scheduler:
            Area = 4.66183 mm^2
            Peak Dynamic = 3.86192 W
            Subthreshold Leakage = 0.0916813 W
            Subthreshold Leakage with power gating = 0.0520251 W
            Gate Leakage = 0.0120132 W
            Runtime Dynamic = 0 W

              Instruction Window:
                Area = 2.22085 mm^2
                Peak Dynamic = 1.8176 W
                Subthreshold Leakage = 0.0700879 W
                Subthreshold Leakage with power gating = 0.0399235 W
                Gate Leakage = 0.00960014 W
                Runtime Dynamic = 0 W

              FP Instruction Window:
                Area = 0.328065 mm^2
                Peak Dynamic = 0.497778 W
                Subthreshold Leakage = 0.00690732 W
                Subthreshold Leakage with power gating = 0.0039106 W
                Gate Leakage = 0.000979629 W
                Runtime Dynamic = 0 W

              ROB:
                Area = 2.11292 mm^2
                Peak Dynamic = 1.54653 W
                Subthreshold Leakage = 0.0146861 W
                Subthreshold Leakage with power gating = 0.00819096 W
                Gate Leakage = 0.00143341 W
                Runtime Dynamic = 0 W

          Integer ALUs (Count: 9 ):
            Area = 0.706306 mm^2
            Peak Dynamic = 0 W
            Subthreshold Leakage = 0.242465 W
            Subthreshold Leakage with power gating = 0.109109 W
            Gate Leakage = 0.0331614 W
            Runtime Dynamic = 0.070378 W

          Floating Point Units (FPUs) (Count: 2 ):
            Area = 4.6585 mm^2
            Peak Dynamic = 0 W
            Subthreshold Leakage = 0.3998 W
            Subthreshold Leakage with power gating = 0.17991 W
            Gate Leakage = 0.0546797 W
            Runtime Dynamic = 0.211134 W

          Complex ALUs (Mul/Div) (Count: 1 ):
            Area = 0.235435 mm^2
            Peak Dynamic = 0 W
            Subthreshold Leakage = 0.0808216 W
            Subthreshold Leakage with power gating = 0.0363697 W
            Gate Leakage = 0.0110538 W
            Runtime Dynamic = 0.140756 W

          Results Broadcast Bus:
            Area Overhead = 0.0602106 mm^2
            Peak Dynamic = 0 W
            Subthreshold Leakage = 0.0492971 W
            Subthreshold Leakage with power gating = 0.0221837 W
            Gate Leakage = 0.00674225 W
            Runtime Dynamic = 0 W

    L2
    Area = 8.77928 mm^2
    Peak Dynamic = 0 W
    Subthreshold Leakage = 0.797449 W
    Subthreshold Leakage with power gating = 0.44906 W
    Gate Leakage = 0.0171755 W
    Runtime Dynamic = 3.06304e-07 W

*****************************************************************************************
Core:
      Area = 43.2304 mm^2
      Peak Dynamic = 8.76183 W
      Subthreshold Leakage = 3.16961 W
      Subthreshold Leakage with power gating = 1.56596 W
      Gate Leakage = 0.350703 W
      Runtime Dynamic = 0.422269 W

      Instruction Fetch Unit:
        Area = 8.7823 mm^2
        Peak Dynamic = 1.62783 W
        Subthreshold Leakage = 0.433903 W
        Subthreshold Leakage with power gating = 0.213688 W
        Gate Leakage = 0.0624842 W
        Runtime Dynamic = 7.10966e-08 W

          Instruction Cache:
            Area = 4.95184 mm^2
            Peak Dynamic = 0 W
            Subthreshold Leakage = 0.197988 W
            Subthreshold Leakage with power gating = 0.10139 W
            Gate Leakage = 0.035734 W
            Runtime Dynamic = 0 W

          Branch Target Buffer:
            Area = 0.789969 mm^2
            Peak Dynamic = 0.0759001 W
            Subthreshold Leakage = 0.0368499 W
            Subthreshold Leakage with power gating = 0.021557 W
            Gate Leakage = 0.00333823 W
            Runtime Dynamic = 0 W

          Branch Predictor:
            Area = 0.139613 mm^2
            Peak Dynamic = 0.0253502 W
            Subthreshold Leakage = 0.00802563 W
            Subthreshold Leakage with power gating = 0.00469502 W
            Gate Leakage = 0.000631381 W
            Runtime Dynamic = 0 W

              Global Predictor:
                Area = 0.0443718 mm^2
                Peak Dynamic = 0.0073166 W
                Subthreshold Leakage = 0.00305314 W
                Subthreshold Leakage with power gating = 0.00178441 W
                Gate Leakage = 0.000231968 W
                Runtime Dynamic = 0 W

              Local Predictor:
              L1_Local Predictor:
                Area = 0.0264164 mm^2
                Peak Dynamic = 0.00596243 W
                Subthreshold Leakage = 0.00154459 W
                Subthreshold Leakage with power gating = 0.000902955 W
                Gate Leakage = 0.00012879 W
                Runtime Dynamic = 0 W

              L2_Local Predictor:
                Area = 0.0135618 mm^2
                Peak Dynamic = 0.00304081 W
                Subthreshold Leakage = 0.000782464 W
                Subthreshold Leakage with power gating = 0.000456083 W
                Gate Leakage = 6.76797e-05 W
                Runtime Dynamic = 0 W

              Chooser:
                Area = 0.0443718 mm^2
                Peak Dynamic = 0.0073166 W
                Subthreshold Leakage = 0.00305314 W
                Subthreshold Leakage with power gating = 0.00178441 W
                Gate Leakage = 0.000231968 W
                Runtime Dynamic = 0 W

              RAS:
                Area = 0.0108915 mm^2
                Peak Dynamic = 0.00475453 W
                Subthreshold Leakage = 0.000374753 W
                Subthreshold Leakage with power gating = 0.000223242 W
                Gate Leakage = 3.86548e-05 W
                Runtime Dynamic = 0 W

          Instruction Buffer:
            Area = 0.0463126 mm^2
            Peak Dynamic = 0.719463 W
            Subthreshold Leakage = 0.000993296 W
            Subthreshold Leakage with power gating = 0.000525149 W
            Gate Leakage = 9.63964e-05 W
            Runtime Dynamic = 0 W

          Instruction Decoder:
            Area = 2.78698 mm^2
            Peak Dynamic = 0.807118 W
            Subthreshold Leakage = 0.178009 W
            Subthreshold Leakage with power gating = 0.080104 W
            Gate Leakage = 0.0185411 W
            Runtime Dynamic = 0 W

      Renaming Unit:
        Area = 0.55916 mm^2
        Peak Dynamic = 2.68412 W
        Subthreshold Leakage = 0.0341099 W
        Subthreshold Leakage with power gating = 0.0180116 W
        Gate Leakage = 0.00878169 W
        Runtime Dynamic = 7.10966e-08 W

          Int Front End RAT:
            Area = 0.224957 mm^2
            Peak Dynamic = 0.988468 W
            Subthreshold Leakage = 0.00388114 W
            Subthreshold Leakage with power gating = 0.00221225 W
            Gate Leakage = 0.000497349 W
            Runtime Dynamic = 0 W

          FP Front End RAT:
            Area = 0.168486 mm^2
            Peak Dynamic = 1.4632 W
            Subthreshold Leakage = 0.0175733 W
            Subthreshold Leakage with power gating = 0.0100168 W
            Gate Leakage = 0.00408109 W
            Runtime Dynamic = 0 W

          Free List:
            Area = 0.098125 mm^2
            Peak Dynamic = 0.0462146 W
            Subthreshold Leakage = 0.000618071 W
            Subthreshold Leakage with power gating = 0.000365734 W
            Gate Leakage = 6.01459e-05 W
            Runtime Dynamic = 0 W

      Load Store Unit:
        Area = 8.93636 mm^2
        Peak Dynamic = 0.494853 W
        Subthreshold Leakage = 0.243502 W
        Subthreshold Leakage with power gating = 0.125782 W
        Gate Leakage = 0.0309037 W
        Runtime Dynamic = 7.10966e-08 W

          Data Cache:
            Area = 6.93142 mm^2
            Peak Dynamic = 0.494853 W
            Subthreshold Leakage = 0.213789 W
            Subthreshold Leakage with power gating = 0.11029 W
            Gate Leakage = 0.0235117 W
            Runtime Dynamic = 0 W

          LoadQ:
            Area = 0.083675 mm^2
            Peak Dynamic = 0 W
            Subthreshold Leakage = 0.00378553 W
            Subthreshold Leakage with power gating = 0.00215775 W
            Gate Leakage = 0.000499133 W
            Runtime Dynamic = 0 W

          StoreQ:
            Area = 0.322068 mm^2
            Peak Dynamic = 0 W
            Subthreshold Leakage = 0.0138897 W
            Subthreshold Leakage with power gating = 0.00791712 W
            Gate Leakage = 0.00274976 W
            Runtime Dynamic = 0 W

      Memory Management Unit:
        Area = 0.216644 mm^2
        Peak Dynamic = 0.093117 W
        Subthreshold Leakage = 0.0221339 W
        Subthreshold Leakage with power gating = 0.0111719 W
        Gate Leakage = 0.00535145 W
        Runtime Dynamic = 7.10966e-08 W

          Itlb:
            Area = 0.0610812 mm^2
            Peak Dynamic = 0 W
            Subthreshold Leakage = 0.00383935 W
            Subthreshold Leakage with power gating = 0.00218843 W
            Gate Leakage = 0.000468934 W
            Runtime Dynamic = 0 W

          Dtlb:
            Area = 0.087971 mm^2
            Peak Dynamic = 0 W
            Subthreshold Leakage = 0.0062572 W
            Subthreshold Leakage with power gating = 0.0035666 W
            Gate Leakage = 0.000739408 W
            Runtime Dynamic = 0 W

      Execution Unit:
        Area = 11.56 mm^2
        Peak Dynamic = 3.86192 W
        Subthreshold Leakage = 0.883845 W
        Subthreshold Leakage with power gating = 0.408649 W
        Gate Leakage = 0.122793 W
        Runtime Dynamic = 0.422268 W

          Register Files:
            Area = 1.17013 mm^2
            Peak Dynamic = 0 W
            Subthreshold Leakage = 0.00774319 W
            Subthreshold Leakage with power gating = 0.00363493 W
            Gate Leakage = 0.000999271 W
            Runtime Dynamic = 0 W

              Integer RF:
                Area = 0.749997 mm^2
                Peak Dynamic = 0 W
                Subthreshold Leakage = 0.00484773 W
                Subthreshold Leakage with power gating = 0.00224312 W
                Gate Leakage = 0.000645553 W
                Runtime Dynamic = 0 W

              Floating Point RF:
                Area = 0.420137 mm^2
                Peak Dynamic = 0 W
                Subthreshold Leakage = 0.00289546 W
                Subthreshold Leakage with power gating = 0.0013918 W
                Gate Leakage = 0.000353718 W
                Runtime Dynamic = 0 W

          Instruction Scheduler:
            Area = 4.66183 mm^2
            Peak Dynamic = 3.86192 W
            Subthreshold Leakage = 0.0916813 W
            Subthreshold Leakage with power gating = 0.0520251 W
            Gate Leakage = 0.0120132 W
            Runtime Dynamic = 0 W

              Instruction Window:
                Area = 2.22085 mm^2
                Peak Dynamic = 1.8176 W
                Subthreshold Leakage = 0.0700879 W
                Subthreshold Leakage with power gating = 0.0399235 W
                Gate Leakage = 0.00960014 W
                Runtime Dynamic = 0 W

              FP Instruction Window:
                Area = 0.328065 mm^2
                Peak Dynamic = 0.497778 W
                Subthreshold Leakage = 0.00690732 W
                Subthreshold Leakage with power gating = 0.0039106 W
                Gate Leakage = 0.000979629 W
                Runtime Dynamic = 0 W

              ROB:
                Area = 2.11292 mm^2
                Peak Dynamic = 1.54653 W
                Subthreshold Leakage = 0.0146861 W
                Subthreshold Leakage with power gating = 0.00819096 W
                Gate Leakage = 0.00143341 W
                Runtime Dynamic = 0 W

          Integer ALUs (Count: 9 ):
            Area = 0.706306 mm^2
            Peak Dynamic = 0 W
            Subthreshold Leakage = 0.242465 W
            Subthreshold Leakage with power gating = 0.109109 W
            Gate Leakage = 0.0331614 W
            Runtime Dynamic = 0.070378 W

          Floating Point Units (FPUs) (Count: 2 ):
            Area = 4.6585 mm^2
            Peak Dynamic = 0 W
            Subthreshold Leakage = 0.3998 W
            Subthreshold Leakage with power gating = 0.17991 W
            Gate Leakage = 0.0546797 W
            Runtime Dynamic = 0.211134 W

          Complex ALUs (Mul/Div) (Count: 1 ):
            Area = 0.235435 mm^2
            Peak Dynamic = 0 W
            Subthreshold Leakage = 0.0808216 W
            Subthreshold Leakage with power gating = 0.0363697 W
            Gate Leakage = 0.0110538 W
            Runtime Dynamic = 0.140756 W

          Results Broadcast Bus:
            Area Overhead = 0.0602106 mm^2
            Peak Dynamic = 0 W
            Subthreshold Leakage = 0.0492971 W
            Subthreshold Leakage with power gating = 0.0221837 W
            Gate Leakage = 0.00674225 W
            Runtime Dynamic = 0 W

    L2
    Area = 8.77928 mm^2
    Peak Dynamic = 0 W
    Subthreshold Leakage = 0.797449 W
    Subthreshold Leakage with power gating = 0.44906 W
    Gate Leakage = 0.0171755 W
    Runtime Dynamic = 3.06304e-07 W

*****************************************************************************************
Core:
      Area = 43.2304 mm^2
      Peak Dynamic = 8.76183 W
      Subthreshold Leakage = 3.16961 W
      Subthreshold Leakage with power gating = 1.56596 W
      Gate Leakage = 0.350703 W
      Runtime Dynamic = 0.422269 W

      Instruction Fetch Unit:
        Area = 8.7823 mm^2
        Peak Dynamic = 1.62783 W
        Subthreshold Leakage = 0.433903 W
        Subthreshold Leakage with power gating = 0.213688 W
        Gate Leakage = 0.0624842 W
        Runtime Dynamic = 7.10966e-08 W

          Instruction Cache:
            Area = 4.95184 mm^2
            Peak Dynamic = 0 W
            Subthreshold Leakage = 0.197988 W
            Subthreshold Leakage with power gating = 0.10139 W
            Gate Leakage = 0.035734 W
            Runtime Dynamic = 0 W

          Branch Target Buffer:
            Area = 0.789969 mm^2
            Peak Dynamic = 0.0759001 W
            Subthreshold Leakage = 0.0368499 W
            Subthreshold Leakage with power gating = 0.021557 W
            Gate Leakage = 0.00333823 W
            Runtime Dynamic = 0 W

          Branch Predictor:
            Area = 0.139613 mm^2
            Peak Dynamic = 0.0253502 W
            Subthreshold Leakage = 0.00802563 W
            Subthreshold Leakage with power gating = 0.00469502 W
            Gate Leakage = 0.000631381 W
            Runtime Dynamic = 0 W

              Global Predictor:
                Area = 0.0443718 mm^2
                Peak Dynamic = 0.0073166 W
                Subthreshold Leakage = 0.00305314 W
                Subthreshold Leakage with power gating = 0.00178441 W
                Gate Leakage = 0.000231968 W
                Runtime Dynamic = 0 W

              Local Predictor:
              L1_Local Predictor:
                Area = 0.0264164 mm^2
                Peak Dynamic = 0.00596243 W
                Subthreshold Leakage = 0.00154459 W
                Subthreshold Leakage with power gating = 0.000902955 W
                Gate Leakage = 0.00012879 W
                Runtime Dynamic = 0 W

              L2_Local Predictor:
                Area = 0.0135618 mm^2
                Peak Dynamic = 0.00304081 W
                Subthreshold Leakage = 0.000782464 W
                Subthreshold Leakage with power gating = 0.000456083 W
                Gate Leakage = 6.76797e-05 W
                Runtime Dynamic = 0 W

              Chooser:
                Area = 0.0443718 mm^2
                Peak Dynamic = 0.0073166 W
                Subthreshold Leakage = 0.00305314 W
                Subthreshold Leakage with power gating = 0.00178441 W
                Gate Leakage = 0.000231968 W
                Runtime Dynamic = 0 W

              RAS:
                Area = 0.0108915 mm^2
                Peak Dynamic = 0.00475453 W
                Subthreshold Leakage = 0.000374753 W
                Subthreshold Leakage with power gating = 0.000223242 W
                Gate Leakage = 3.86548e-05 W
                Runtime Dynamic = 0 W

          Instruction Buffer:
            Area = 0.0463126 mm^2
            Peak Dynamic = 0.719463 W
            Subthreshold Leakage = 0.000993296 W
            Subthreshold Leakage with power gating = 0.000525149 W
            Gate Leakage = 9.63964e-05 W
            Runtime Dynamic = 0 W

          Instruction Decoder:
            Area = 2.78698 mm^2
            Peak Dynamic = 0.807118 W
            Subthreshold Leakage = 0.178009 W
            Subthreshold Leakage with power gating = 0.080104 W
            Gate Leakage = 0.0185411 W
            Runtime Dynamic = 0 W

      Renaming Unit:
        Area = 0.55916 mm^2
        Peak Dynamic = 2.68412 W
        Subthreshold Leakage = 0.0341099 W
        Subthreshold Leakage with power gating = 0.0180116 W
        Gate Leakage = 0.00878169 W
        Runtime Dynamic = 7.10966e-08 W

          Int Front End RAT:
            Area = 0.224957 mm^2
            Peak Dynamic = 0.988468 W
            Subthreshold Leakage = 0.00388114 W
            Subthreshold Leakage with power gating = 0.00221225 W
            Gate Leakage = 0.000497349 W
            Runtime Dynamic = 0 W

          FP Front End RAT:
            Area = 0.168486 mm^2
            Peak Dynamic = 1.4632 W
            Subthreshold Leakage = 0.0175733 W
            Subthreshold Leakage with power gating = 0.0100168 W
            Gate Leakage = 0.00408109 W
            Runtime Dynamic = 0 W

          Free List:
            Area = 0.098125 mm^2
            Peak Dynamic = 0.0462146 W
            Subthreshold Leakage = 0.000618071 W
            Subthreshold Leakage with power gating = 0.000365734 W
            Gate Leakage = 6.01459e-05 W
            Runtime Dynamic = 0 W

      Load Store Unit:
        Area = 8.93636 mm^2
        Peak Dynamic = 0.494853 W
        Subthreshold Leakage = 0.243502 W
        Subthreshold Leakage with power gating = 0.125782 W
        Gate Leakage = 0.0309037 W
        Runtime Dynamic = 7.10966e-08 W

          Data Cache:
            Area = 6.93142 mm^2
            Peak Dynamic = 0.494853 W
            Subthreshold Leakage = 0.213789 W
            Subthreshold Leakage with power gating = 0.11029 W
            Gate Leakage = 0.0235117 W
            Runtime Dynamic = 0 W

          LoadQ:
            Area = 0.083675 mm^2
            Peak Dynamic = 0 W
            Subthreshold Leakage = 0.00378553 W
            Subthreshold Leakage with power gating = 0.00215775 W
            Gate Leakage = 0.000499133 W
            Runtime Dynamic = 0 W

          StoreQ:
            Area = 0.322068 mm^2
            Peak Dynamic = 0 W
            Subthreshold Leakage = 0.0138897 W
            Subthreshold Leakage with power gating = 0.00791712 W
            Gate Leakage = 0.00274976 W
            Runtime Dynamic = 0 W

      Memory Management Unit:
        Area = 0.216644 mm^2
        Peak Dynamic = 0.093117 W
        Subthreshold Leakage = 0.0221339 W
        Subthreshold Leakage with power gating = 0.0111719 W
        Gate Leakage = 0.00535145 W
        Runtime Dynamic = 7.10966e-08 W

          Itlb:
            Area = 0.0610812 mm^2
            Peak Dynamic = 0 W
            Subthreshold Leakage = 0.00383935 W
            Subthreshold Leakage with power gating = 0.00218843 W
            Gate Leakage = 0.000468934 W
            Runtime Dynamic = 0 W

          Dtlb:
            Area = 0.087971 mm^2
            Peak Dynamic = 0 W
            Subthreshold Leakage = 0.0062572 W
            Subthreshold Leakage with power gating = 0.0035666 W
            Gate Leakage = 0.000739408 W
            Runtime Dynamic = 0 W

      Execution Unit:
        Area = 11.56 mm^2
        Peak Dynamic = 3.86192 W
        Subthreshold Leakage = 0.883845 W
        Subthreshold Leakage with power gating = 0.408649 W
        Gate Leakage = 0.122793 W
        Runtime Dynamic = 0.422268 W

          Register Files:
            Area = 1.17013 mm^2
            Peak Dynamic = 0 W
            Subthreshold Leakage = 0.00774319 W
            Subthreshold Leakage with power gating = 0.00363493 W
            Gate Leakage = 0.000999271 W
            Runtime Dynamic = 0 W

              Integer RF:
                Area = 0.749997 mm^2
                Peak Dynamic = 0 W
                Subthreshold Leakage = 0.00484773 W
                Subthreshold Leakage with power gating = 0.00224312 W
                Gate Leakage = 0.000645553 W
                Runtime Dynamic = 0 W

              Floating Point RF:
                Area = 0.420137 mm^2
                Peak Dynamic = 0 W
                Subthreshold Leakage = 0.00289546 W
                Subthreshold Leakage with power gating = 0.0013918 W
                Gate Leakage = 0.000353718 W
                Runtime Dynamic = 0 W

          Instruction Scheduler:
            Area = 4.66183 mm^2
            Peak Dynamic = 3.86192 W
            Subthreshold Leakage = 0.0916813 W
            Subthreshold Leakage with power gating = 0.0520251 W
            Gate Leakage = 0.0120132 W
            Runtime Dynamic = 0 W

              Instruction Window:
                Area = 2.22085 mm^2
                Peak Dynamic = 1.8176 W
                Subthreshold Leakage = 0.0700879 W
                Subthreshold Leakage with power gating = 0.0399235 W
                Gate Leakage = 0.00960014 W
                Runtime Dynamic = 0 W

              FP Instruction Window:
                Area = 0.328065 mm^2
                Peak Dynamic = 0.497778 W
                Subthreshold Leakage = 0.00690732 W
                Subthreshold Leakage with power gating = 0.0039106 W
                Gate Leakage = 0.000979629 W
                Runtime Dynamic = 0 W

              ROB:
                Area = 2.11292 mm^2
                Peak Dynamic = 1.54653 W
                Subthreshold Leakage = 0.0146861 W
                Subthreshold Leakage with power gating = 0.00819096 W
                Gate Leakage = 0.00143341 W
                Runtime Dynamic = 0 W

          Integer ALUs (Count: 9 ):
            Area = 0.706306 mm^2
            Peak Dynamic = 0 W
            Subthreshold Leakage = 0.242465 W
            Subthreshold Leakage with power gating = 0.109109 W
            Gate Leakage = 0.0331614 W
            Runtime Dynamic = 0.070378 W

          Floating Point Units (FPUs) (Count: 2 ):
            Area = 4.6585 mm^2
            Peak Dynamic = 0 W
            Subthreshold Leakage = 0.3998 W
            Subthreshold Leakage with power gating = 0.17991 W
            Gate Leakage = 0.0546797 W
            Runtime Dynamic = 0.211134 W

          Complex ALUs (Mul/Div) (Count: 1 ):
            Area = 0.235435 mm^2
            Peak Dynamic = 0 W
            Subthreshold Leakage = 0.0808216 W
            Subthreshold Leakage with power gating = 0.0363697 W
            Gate Leakage = 0.0110538 W
            Runtime Dynamic = 0.140756 W

          Results Broadcast Bus:
            Area Overhead = 0.0602106 mm^2
            Peak Dynamic = 0 W
            Subthreshold Leakage = 0.0492971 W
            Subthreshold Leakage with power gating = 0.0221837 W
            Gate Leakage = 0.00674225 W
            Runtime Dynamic = 0 W

    L2
    Area = 8.77928 mm^2
    Peak Dynamic = 0 W
    Subthreshold Leakage = 0.797449 W
    Subthreshold Leakage with power gating = 0.44906 W
    Gate Leakage = 0.0171755 W
    Runtime Dynamic = 3.06304e-07 W

*****************************************************************************************
Core:
      Area = 43.2304 mm^2
      Peak Dynamic = 8.76183 W
      Subthreshold Leakage = 3.16961 W
      Subthreshold Leakage with power gating = 1.56596 W
      Gate Leakage = 0.350703 W
      Runtime Dynamic = 0.422269 W

      Instruction Fetch Unit:
        Area = 8.7823 mm^2
        Peak Dynamic = 1.62783 W
        Subthreshold Leakage = 0.433903 W
        Subthreshold Leakage with power gating = 0.213688 W
        Gate Leakage = 0.0624842 W
        Runtime Dynamic = 7.10966e-08 W

          Instruction Cache:
            Area = 4.95184 mm^2
            Peak Dynamic = 0 W
            Subthreshold Leakage = 0.197988 W
            Subthreshold Leakage with power gating = 0.10139 W
            Gate Leakage = 0.035734 W
            Runtime Dynamic = 0 W

          Branch Target Buffer:
            Area = 0.789969 mm^2
            Peak Dynamic = 0.0759001 W
            Subthreshold Leakage = 0.0368499 W
            Subthreshold Leakage with power gating = 0.021557 W
            Gate Leakage = 0.00333823 W
            Runtime Dynamic = 0 W

          Branch Predictor:
            Area = 0.139613 mm^2
            Peak Dynamic = 0.0253502 W
            Subthreshold Leakage = 0.00802563 W
            Subthreshold Leakage with power gating = 0.00469502 W
            Gate Leakage = 0.000631381 W
            Runtime Dynamic = 0 W

              Global Predictor:
                Area = 0.0443718 mm^2
                Peak Dynamic = 0.0073166 W
                Subthreshold Leakage = 0.00305314 W
                Subthreshold Leakage with power gating = 0.00178441 W
                Gate Leakage = 0.000231968 W
                Runtime Dynamic = 0 W

              Local Predictor:
              L1_Local Predictor:
                Area = 0.0264164 mm^2
                Peak Dynamic = 0.00596243 W
                Subthreshold Leakage = 0.00154459 W
                Subthreshold Leakage with power gating = 0.000902955 W
                Gate Leakage = 0.00012879 W
                Runtime Dynamic = 0 W

              L2_Local Predictor:
                Area = 0.0135618 mm^2
                Peak Dynamic = 0.00304081 W
                Subthreshold Leakage = 0.000782464 W
                Subthreshold Leakage with power gating = 0.000456083 W
                Gate Leakage = 6.76797e-05 W
                Runtime Dynamic = 0 W

              Chooser:
                Area = 0.0443718 mm^2
                Peak Dynamic = 0.0073166 W
                Subthreshold Leakage = 0.00305314 W
                Subthreshold Leakage with power gating = 0.00178441 W
                Gate Leakage = 0.000231968 W
                Runtime Dynamic = 0 W

              RAS:
                Area = 0.0108915 mm^2
                Peak Dynamic = 0.00475453 W
                Subthreshold Leakage = 0.000374753 W
                Subthreshold Leakage with power gating = 0.000223242 W
                Gate Leakage = 3.86548e-05 W
                Runtime Dynamic = 0 W

          Instruction Buffer:
            Area = 0.0463126 mm^2
            Peak Dynamic = 0.719463 W
            Subthreshold Leakage = 0.000993296 W
            Subthreshold Leakage with power gating = 0.000525149 W
            Gate Leakage = 9.63964e-05 W
            Runtime Dynamic = 0 W

          Instruction Decoder:
            Area = 2.78698 mm^2
            Peak Dynamic = 0.807118 W
            Subthreshold Leakage = 0.178009 W
            Subthreshold Leakage with power gating = 0.080104 W
            Gate Leakage = 0.0185411 W
            Runtime Dynamic = 0 W

      Renaming Unit:
        Area = 0.55916 mm^2
        Peak Dynamic = 2.68412 W
        Subthreshold Leakage = 0.0341099 W
        Subthreshold Leakage with power gating = 0.0180116 W
        Gate Leakage = 0.00878169 W
        Runtime Dynamic = 7.10966e-08 W

          Int Front End RAT:
            Area = 0.224957 mm^2
            Peak Dynamic = 0.988468 W
            Subthreshold Leakage = 0.00388114 W
            Subthreshold Leakage with power gating = 0.00221225 W
            Gate Leakage = 0.000497349 W
            Runtime Dynamic = 0 W

          FP Front End RAT:
            Area = 0.168486 mm^2
            Peak Dynamic = 1.4632 W
            Subthreshold Leakage = 0.0175733 W
            Subthreshold Leakage with power gating = 0.0100168 W
            Gate Leakage = 0.00408109 W
            Runtime Dynamic = 0 W

          Free List:
            Area = 0.098125 mm^2
            Peak Dynamic = 0.0462146 W
            Subthreshold Leakage = 0.000618071 W
            Subthreshold Leakage with power gating = 0.000365734 W
            Gate Leakage = 6.01459e-05 W
            Runtime Dynamic = 0 W

      Load Store Unit:
        Area = 8.93636 mm^2
        Peak Dynamic = 0.494853 W
        Subthreshold Leakage = 0.243502 W
        Subthreshold Leakage with power gating = 0.125782 W
        Gate Leakage = 0.0309037 W
        Runtime Dynamic = 7.10966e-08 W

          Data Cache:
            Area = 6.93142 mm^2
            Peak Dynamic = 0.494853 W
            Subthreshold Leakage = 0.213789 W
            Subthreshold Leakage with power gating = 0.11029 W
            Gate Leakage = 0.0235117 W
            Runtime Dynamic = 0 W

          LoadQ:
            Area = 0.083675 mm^2
            Peak Dynamic = 0 W
            Subthreshold Leakage = 0.00378553 W
            Subthreshold Leakage with power gating = 0.00215775 W
            Gate Leakage = 0.000499133 W
            Runtime Dynamic = 0 W

          StoreQ:
            Area = 0.322068 mm^2
            Peak Dynamic = 0 W
            Subthreshold Leakage = 0.0138897 W
            Subthreshold Leakage with power gating = 0.00791712 W
            Gate Leakage = 0.00274976 W
            Runtime Dynamic = 0 W

      Memory Management Unit:
        Area = 0.216644 mm^2
        Peak Dynamic = 0.093117 W
        Subthreshold Leakage = 0.0221339 W
        Subthreshold Leakage with power gating = 0.0111719 W
        Gate Leakage = 0.00535145 W
        Runtime Dynamic = 7.10966e-08 W

          Itlb:
            Area = 0.0610812 mm^2
            Peak Dynamic = 0 W
            Subthreshold Leakage = 0.00383935 W
            Subthreshold Leakage with power gating = 0.00218843 W
            Gate Leakage = 0.000468934 W
            Runtime Dynamic = 0 W

          Dtlb:
            Area = 0.087971 mm^2
            Peak Dynamic = 0 W
            Subthreshold Leakage = 0.0062572 W
            Subthreshold Leakage with power gating = 0.0035666 W
            Gate Leakage = 0.000739408 W
            Runtime Dynamic = 0 W

      Execution Unit:
        Area = 11.56 mm^2
        Peak Dynamic = 3.86192 W
        Subthreshold Leakage = 0.883845 W
        Subthreshold Leakage with power gating = 0.408649 W
        Gate Leakage = 0.122793 W
        Runtime Dynamic = 0.422268 W

          Register Files:
            Area = 1.17013 mm^2
            Peak Dynamic = 0 W
            Subthreshold Leakage = 0.00774319 W
            Subthreshold Leakage with power gating = 0.00363493 W
            Gate Leakage = 0.000999271 W
            Runtime Dynamic = 0 W

              Integer RF:
                Area = 0.749997 mm^2
                Peak Dynamic = 0 W
                Subthreshold Leakage = 0.00484773 W
                Subthreshold Leakage with power gating = 0.00224312 W
                Gate Leakage = 0.000645553 W
                Runtime Dynamic = 0 W

              Floating Point RF:
                Area = 0.420137 mm^2
                Peak Dynamic = 0 W
                Subthreshold Leakage = 0.00289546 W
                Subthreshold Leakage with power gating = 0.0013918 W
                Gate Leakage = 0.000353718 W
                Runtime Dynamic = 0 W

          Instruction Scheduler:
            Area = 4.66183 mm^2
            Peak Dynamic = 3.86192 W
            Subthreshold Leakage = 0.0916813 W
            Subthreshold Leakage with power gating = 0.0520251 W
            Gate Leakage = 0.0120132 W
            Runtime Dynamic = 0 W

              Instruction Window:
                Area = 2.22085 mm^2
                Peak Dynamic = 1.8176 W
                Subthreshold Leakage = 0.0700879 W
                Subthreshold Leakage with power gating = 0.0399235 W
                Gate Leakage = 0.00960014 W
                Runtime Dynamic = 0 W

              FP Instruction Window:
                Area = 0.328065 mm^2
                Peak Dynamic = 0.497778 W
                Subthreshold Leakage = 0.00690732 W
                Subthreshold Leakage with power gating = 0.0039106 W
                Gate Leakage = 0.000979629 W
                Runtime Dynamic = 0 W

              ROB:
                Area = 2.11292 mm^2
                Peak Dynamic = 1.54653 W
                Subthreshold Leakage = 0.0146861 W
                Subthreshold Leakage with power gating = 0.00819096 W
                Gate Leakage = 0.00143341 W
                Runtime Dynamic = 0 W

          Integer ALUs (Count: 9 ):
            Area = 0.706306 mm^2
            Peak Dynamic = 0 W
            Subthreshold Leakage = 0.242465 W
            Subthreshold Leakage with power gating = 0.109109 W
            Gate Leakage = 0.0331614 W
            Runtime Dynamic = 0.070378 W

          Floating Point Units (FPUs) (Count: 2 ):
            Area = 4.6585 mm^2
            Peak Dynamic = 0 W
            Subthreshold Leakage = 0.3998 W
            Subthreshold Leakage with power gating = 0.17991 W
            Gate Leakage = 0.0546797 W
            Runtime Dynamic = 0.211134 W

          Complex ALUs (Mul/Div) (Count: 1 ):
            Area = 0.235435 mm^2
            Peak Dynamic = 0 W
            Subthreshold Leakage = 0.0808216 W
            Subthreshold Leakage with power gating = 0.0363697 W
            Gate Leakage = 0.0110538 W
            Runtime Dynamic = 0.140756 W

          Results Broadcast Bus:
            Area Overhead = 0.0602106 mm^2
            Peak Dynamic = 0 W
            Subthreshold Leakage = 0.0492971 W
            Subthreshold Leakage with power gating = 0.0221837 W
            Gate Leakage = 0.00674225 W
            Runtime Dynamic = 0 W

    L2
    Area = 8.77928 mm^2
    Peak Dynamic = 0 W
    Subthreshold Leakage = 0.797449 W
    Subthreshold Leakage with power gating = 0.44906 W
    Gate Leakage = 0.0171755 W
    Runtime Dynamic = 3.06304e-07 W

*****************************************************************************************
Core:
      Area = 43.2304 mm^2
      Peak Dynamic = 8.76183 W
      Subthreshold Leakage = 3.16961 W
      Subthreshold Leakage with power gating = 1.56596 W
      Gate Leakage = 0.350703 W
      Runtime Dynamic = 0.422269 W

      Instruction Fetch Unit:
        Area = 8.7823 mm^2
        Peak Dynamic = 1.62783 W
        Subthreshold Leakage = 0.433903 W
        Subthreshold Leakage with power gating = 0.213688 W
        Gate Leakage = 0.0624842 W
        Runtime Dynamic = 7.10966e-08 W

          Instruction Cache:
            Area = 4.95184 mm^2
            Peak Dynamic = 0 W
            Subthreshold Leakage = 0.197988 W
            Subthreshold Leakage with power gating = 0.10139 W
            Gate Leakage = 0.035734 W
            Runtime Dynamic = 0 W

          Branch Target Buffer:
            Area = 0.789969 mm^2
            Peak Dynamic = 0.0759001 W
            Subthreshold Leakage = 0.0368499 W
            Subthreshold Leakage with power gating = 0.021557 W
            Gate Leakage = 0.00333823 W
            Runtime Dynamic = 0 W

          Branch Predictor:
            Area = 0.139613 mm^2
            Peak Dynamic = 0.0253502 W
            Subthreshold Leakage = 0.00802563 W
            Subthreshold Leakage with power gating = 0.00469502 W
            Gate Leakage = 0.000631381 W
            Runtime Dynamic = 0 W

              Global Predictor:
                Area = 0.0443718 mm^2
                Peak Dynamic = 0.0073166 W
                Subthreshold Leakage = 0.00305314 W
                Subthreshold Leakage with power gating = 0.00178441 W
                Gate Leakage = 0.000231968 W
                Runtime Dynamic = 0 W

              Local Predictor:
              L1_Local Predictor:
                Area = 0.0264164 mm^2
                Peak Dynamic = 0.00596243 W
                Subthreshold Leakage = 0.00154459 W
                Subthreshold Leakage with power gating = 0.000902955 W
                Gate Leakage = 0.00012879 W
                Runtime Dynamic = 0 W

              L2_Local Predictor:
                Area = 0.0135618 mm^2
                Peak Dynamic = 0.00304081 W
                Subthreshold Leakage = 0.000782464 W
                Subthreshold Leakage with power gating = 0.000456083 W
                Gate Leakage = 6.76797e-05 W
                Runtime Dynamic = 0 W

              Chooser:
                Area = 0.0443718 mm^2
                Peak Dynamic = 0.0073166 W
                Subthreshold Leakage = 0.00305314 W
                Subthreshold Leakage with power gating = 0.00178441 W
                Gate Leakage = 0.000231968 W
                Runtime Dynamic = 0 W

              RAS:
                Area = 0.0108915 mm^2
                Peak Dynamic = 0.00475453 W
                Subthreshold Leakage = 0.000374753 W
                Subthreshold Leakage with power gating = 0.000223242 W
                Gate Leakage = 3.86548e-05 W
                Runtime Dynamic = 0 W

          Instruction Buffer:
            Area = 0.0463126 mm^2
            Peak Dynamic = 0.719463 W
            Subthreshold Leakage = 0.000993296 W
            Subthreshold Leakage with power gating = 0.000525149 W
            Gate Leakage = 9.63964e-05 W
            Runtime Dynamic = 0 W

          Instruction Decoder:
            Area = 2.78698 mm^2
            Peak Dynamic = 0.807118 W
            Subthreshold Leakage = 0.178009 W
            Subthreshold Leakage with power gating = 0.080104 W
            Gate Leakage = 0.0185411 W
            Runtime Dynamic = 0 W

      Renaming Unit:
        Area = 0.55916 mm^2
        Peak Dynamic = 2.68412 W
        Subthreshold Leakage = 0.0341099 W
        Subthreshold Leakage with power gating = 0.0180116 W
        Gate Leakage = 0.00878169 W
        Runtime Dynamic = 7.10966e-08 W

          Int Front End RAT:
            Area = 0.224957 mm^2
            Peak Dynamic = 0.988468 W
            Subthreshold Leakage = 0.00388114 W
            Subthreshold Leakage with power gating = 0.00221225 W
            Gate Leakage = 0.000497349 W
            Runtime Dynamic = 0 W

          FP Front End RAT:
            Area = 0.168486 mm^2
            Peak Dynamic = 1.4632 W
            Subthreshold Leakage = 0.0175733 W
            Subthreshold Leakage with power gating = 0.0100168 W
            Gate Leakage = 0.00408109 W
            Runtime Dynamic = 0 W

          Free List:
            Area = 0.098125 mm^2
            Peak Dynamic = 0.0462146 W
            Subthreshold Leakage = 0.000618071 W
            Subthreshold Leakage with power gating = 0.000365734 W
            Gate Leakage = 6.01459e-05 W
            Runtime Dynamic = 0 W

      Load Store Unit:
        Area = 8.93636 mm^2
        Peak Dynamic = 0.494853 W
        Subthreshold Leakage = 0.243502 W
        Subthreshold Leakage with power gating = 0.125782 W
        Gate Leakage = 0.0309037 W
        Runtime Dynamic = 7.10966e-08 W

          Data Cache:
            Area = 6.93142 mm^2
            Peak Dynamic = 0.494853 W
            Subthreshold Leakage = 0.213789 W
            Subthreshold Leakage with power gating = 0.11029 W
            Gate Leakage = 0.0235117 W
            Runtime Dynamic = 0 W

          LoadQ:
            Area = 0.083675 mm^2
            Peak Dynamic = 0 W
            Subthreshold Leakage = 0.00378553 W
            Subthreshold Leakage with power gating = 0.00215775 W
            Gate Leakage = 0.000499133 W
            Runtime Dynamic = 0 W

          StoreQ:
            Area = 0.322068 mm^2
            Peak Dynamic = 0 W
            Subthreshold Leakage = 0.0138897 W
            Subthreshold Leakage with power gating = 0.00791712 W
            Gate Leakage = 0.00274976 W
            Runtime Dynamic = 0 W

      Memory Management Unit:
        Area = 0.216644 mm^2
        Peak Dynamic = 0.093117 W
        Subthreshold Leakage = 0.0221339 W
        Subthreshold Leakage with power gating = 0.0111719 W
        Gate Leakage = 0.00535145 W
        Runtime Dynamic = 7.10966e-08 W

          Itlb:
            Area = 0.0610812 mm^2
            Peak Dynamic = 0 W
            Subthreshold Leakage = 0.00383935 W
            Subthreshold Leakage with power gating = 0.00218843 W
            Gate Leakage = 0.000468934 W
            Runtime Dynamic = 0 W

          Dtlb:
            Area = 0.087971 mm^2
            Peak Dynamic = 0 W
            Subthreshold Leakage = 0.0062572 W
            Subthreshold Leakage with power gating = 0.0035666 W
            Gate Leakage = 0.000739408 W
            Runtime Dynamic = 0 W

      Execution Unit:
        Area = 11.56 mm^2
        Peak Dynamic = 3.86192 W
        Subthreshold Leakage = 0.883845 W
        Subthreshold Leakage with power gating = 0.408649 W
        Gate Leakage = 0.122793 W
        Runtime Dynamic = 0.422268 W

          Register Files:
            Area = 1.17013 mm^2
            Peak Dynamic = 0 W
            Subthreshold Leakage = 0.00774319 W
            Subthreshold Leakage with power gating = 0.00363493 W
            Gate Leakage = 0.000999271 W
            Runtime Dynamic = 0 W

              Integer RF:
                Area = 0.749997 mm^2
                Peak Dynamic = 0 W
                Subthreshold Leakage = 0.00484773 W
                Subthreshold Leakage with power gating = 0.00224312 W
                Gate Leakage = 0.000645553 W
                Runtime Dynamic = 0 W

              Floating Point RF:
                Area = 0.420137 mm^2
                Peak Dynamic = 0 W
                Subthreshold Leakage = 0.00289546 W
                Subthreshold Leakage with power gating = 0.0013918 W
                Gate Leakage = 0.000353718 W
                Runtime Dynamic = 0 W

          Instruction Scheduler:
            Area = 4.66183 mm^2
            Peak Dynamic = 3.86192 W
            Subthreshold Leakage = 0.0916813 W
            Subthreshold Leakage with power gating = 0.0520251 W
            Gate Leakage = 0.0120132 W
            Runtime Dynamic = 0 W

              Instruction Window:
                Area = 2.22085 mm^2
                Peak Dynamic = 1.8176 W
                Subthreshold Leakage = 0.0700879 W
                Subthreshold Leakage with power gating = 0.0399235 W
                Gate Leakage = 0.00960014 W
                Runtime Dynamic = 0 W

              FP Instruction Window:
                Area = 0.328065 mm^2
                Peak Dynamic = 0.497778 W
                Subthreshold Leakage = 0.00690732 W
                Subthreshold Leakage with power gating = 0.0039106 W
                Gate Leakage = 0.000979629 W
                Runtime Dynamic = 0 W

              ROB:
                Area = 2.11292 mm^2
                Peak Dynamic = 1.54653 W
                Subthreshold Leakage = 0.0146861 W
                Subthreshold Leakage with power gating = 0.00819096 W
                Gate Leakage = 0.00143341 W
                Runtime Dynamic = 0 W

          Integer ALUs (Count: 9 ):
            Area = 0.706306 mm^2
            Peak Dynamic = 0 W
            Subthreshold Leakage = 0.242465 W
            Subthreshold Leakage with power gating = 0.109109 W
            Gate Leakage = 0.0331614 W
            Runtime Dynamic = 0.070378 W

          Floating Point Units (FPUs) (Count: 2 ):
            Area = 4.6585 mm^2
            Peak Dynamic = 0 W
            Subthreshold Leakage = 0.3998 W
            Subthreshold Leakage with power gating = 0.17991 W
            Gate Leakage = 0.0546797 W
            Runtime Dynamic = 0.211134 W

          Complex ALUs (Mul/Div) (Count: 1 ):
            Area = 0.235435 mm^2
            Peak Dynamic = 0 W
            Subthreshold Leakage = 0.0808216 W
            Subthreshold Leakage with power gating = 0.0363697 W
            Gate Leakage = 0.0110538 W
            Runtime Dynamic = 0.140756 W

          Results Broadcast Bus:
            Area Overhead = 0.0602106 mm^2
            Peak Dynamic = 0 W
            Subthreshold Leakage = 0.0492971 W
            Subthreshold Leakage with power gating = 0.0221837 W
            Gate Leakage = 0.00674225 W
            Runtime Dynamic = 0 W

    L2
    Area = 8.77928 mm^2
    Peak Dynamic = 0 W
    Subthreshold Leakage = 0.797449 W
    Subthreshold Leakage with power gating = 0.44906 W
    Gate Leakage = 0.0171755 W
    Runtime Dynamic = 3.06304e-07 W

*****************************************************************************************
Core:
      Area = 43.2304 mm^2
      Peak Dynamic = 8.76183 W
      Subthreshold Leakage = 3.16961 W
      Subthreshold Leakage with power gating = 1.56596 W
      Gate Leakage = 0.350703 W
      Runtime Dynamic = 0.422269 W

      Instruction Fetch Unit:
        Area = 8.7823 mm^2
        Peak Dynamic = 1.62783 W
        Subthreshold Leakage = 0.433903 W
        Subthreshold Leakage with power gating = 0.213688 W
        Gate Leakage = 0.0624842 W
        Runtime Dynamic = 7.10966e-08 W

          Instruction Cache:
            Area = 4.95184 mm^2
            Peak Dynamic = 0 W
            Subthreshold Leakage = 0.197988 W
            Subthreshold Leakage with power gating = 0.10139 W
            Gate Leakage = 0.035734 W
            Runtime Dynamic = 0 W

          Branch Target Buffer:
            Area = 0.789969 mm^2
            Peak Dynamic = 0.0759001 W
            Subthreshold Leakage = 0.0368499 W
            Subthreshold Leakage with power gating = 0.021557 W
            Gate Leakage = 0.00333823 W
            Runtime Dynamic = 0 W

          Branch Predictor:
            Area = 0.139613 mm^2
            Peak Dynamic = 0.0253502 W
            Subthreshold Leakage = 0.00802563 W
            Subthreshold Leakage with power gating = 0.00469502 W
            Gate Leakage = 0.000631381 W
            Runtime Dynamic = 0 W

              Global Predictor:
                Area = 0.0443718 mm^2
                Peak Dynamic = 0.0073166 W
                Subthreshold Leakage = 0.00305314 W
                Subthreshold Leakage with power gating = 0.00178441 W
                Gate Leakage = 0.000231968 W
                Runtime Dynamic = 0 W

              Local Predictor:
              L1_Local Predictor:
                Area = 0.0264164 mm^2
                Peak Dynamic = 0.00596243 W
                Subthreshold Leakage = 0.00154459 W
                Subthreshold Leakage with power gating = 0.000902955 W
                Gate Leakage = 0.00012879 W
                Runtime Dynamic = 0 W

              L2_Local Predictor:
                Area = 0.0135618 mm^2
                Peak Dynamic = 0.00304081 W
                Subthreshold Leakage = 0.000782464 W
                Subthreshold Leakage with power gating = 0.000456083 W
                Gate Leakage = 6.76797e-05 W
                Runtime Dynamic = 0 W

              Chooser:
                Area = 0.0443718 mm^2
                Peak Dynamic = 0.0073166 W
                Subthreshold Leakage = 0.00305314 W
                Subthreshold Leakage with power gating = 0.00178441 W
                Gate Leakage = 0.000231968 W
                Runtime Dynamic = 0 W

              RAS:
                Area = 0.0108915 mm^2
                Peak Dynamic = 0.00475453 W
                Subthreshold Leakage = 0.000374753 W
                Subthreshold Leakage with power gating = 0.000223242 W
                Gate Leakage = 3.86548e-05 W
                Runtime Dynamic = 0 W

          Instruction Buffer:
            Area = 0.0463126 mm^2
            Peak Dynamic = 0.719463 W
            Subthreshold Leakage = 0.000993296 W
            Subthreshold Leakage with power gating = 0.000525149 W
            Gate Leakage = 9.63964e-05 W
            Runtime Dynamic = 0 W

          Instruction Decoder:
            Area = 2.78698 mm^2
            Peak Dynamic = 0.807118 W
            Subthreshold Leakage = 0.178009 W
            Subthreshold Leakage with power gating = 0.080104 W
            Gate Leakage = 0.0185411 W
            Runtime Dynamic = 0 W

      Renaming Unit:
        Area = 0.55916 mm^2
        Peak Dynamic = 2.68412 W
        Subthreshold Leakage = 0.0341099 W
        Subthreshold Leakage with power gating = 0.0180116 W
        Gate Leakage = 0.00878169 W
        Runtime Dynamic = 7.10966e-08 W

          Int Front End RAT:
            Area = 0.224957 mm^2
            Peak Dynamic = 0.988468 W
            Subthreshold Leakage = 0.00388114 W
            Subthreshold Leakage with power gating = 0.00221225 W
            Gate Leakage = 0.000497349 W
            Runtime Dynamic = 0 W

          FP Front End RAT:
            Area = 0.168486 mm^2
            Peak Dynamic = 1.4632 W
            Subthreshold Leakage = 0.0175733 W
            Subthreshold Leakage with power gating = 0.0100168 W
            Gate Leakage = 0.00408109 W
            Runtime Dynamic = 0 W

          Free List:
            Area = 0.098125 mm^2
            Peak Dynamic = 0.0462146 W
            Subthreshold Leakage = 0.000618071 W
            Subthreshold Leakage with power gating = 0.000365734 W
            Gate Leakage = 6.01459e-05 W
            Runtime Dynamic = 0 W

      Load Store Unit:
        Area = 8.93636 mm^2
        Peak Dynamic = 0.494853 W
        Subthreshold Leakage = 0.243502 W
        Subthreshold Leakage with power gating = 0.125782 W
        Gate Leakage = 0.0309037 W
        Runtime Dynamic = 7.10966e-08 W

          Data Cache:
            Area = 6.93142 mm^2
            Peak Dynamic = 0.494853 W
            Subthreshold Leakage = 0.213789 W
            Subthreshold Leakage with power gating = 0.11029 W
            Gate Leakage = 0.0235117 W
            Runtime Dynamic = 0 W

          LoadQ:
            Area = 0.083675 mm^2
            Peak Dynamic = 0 W
            Subthreshold Leakage = 0.00378553 W
            Subthreshold Leakage with power gating = 0.00215775 W
            Gate Leakage = 0.000499133 W
            Runtime Dynamic = 0 W

          StoreQ:
            Area = 0.322068 mm^2
            Peak Dynamic = 0 W
            Subthreshold Leakage = 0.0138897 W
            Subthreshold Leakage with power gating = 0.00791712 W
            Gate Leakage = 0.00274976 W
            Runtime Dynamic = 0 W

      Memory Management Unit:
        Area = 0.216644 mm^2
        Peak Dynamic = 0.093117 W
        Subthreshold Leakage = 0.0221339 W
        Subthreshold Leakage with power gating = 0.0111719 W
        Gate Leakage = 0.00535145 W
        Runtime Dynamic = 7.10966e-08 W

          Itlb:
            Area = 0.0610812 mm^2
            Peak Dynamic = 0 W
            Subthreshold Leakage = 0.00383935 W
            Subthreshold Leakage with power gating = 0.00218843 W
            Gate Leakage = 0.000468934 W
            Runtime Dynamic = 0 W

          Dtlb:
            Area = 0.087971 mm^2
            Peak Dynamic = 0 W
            Subthreshold Leakage = 0.0062572 W
            Subthreshold Leakage with power gating = 0.0035666 W
            Gate Leakage = 0.000739408 W
            Runtime Dynamic = 0 W

      Execution Unit:
        Area = 11.56 mm^2
        Peak Dynamic = 3.86192 W
        Subthreshold Leakage = 0.883845 W
        Subthreshold Leakage with power gating = 0.408649 W
        Gate Leakage = 0.122793 W
        Runtime Dynamic = 0.422268 W

          Register Files:
            Area = 1.17013 mm^2
            Peak Dynamic = 0 W
            Subthreshold Leakage = 0.00774319 W
            Subthreshold Leakage with power gating = 0.00363493 W
            Gate Leakage = 0.000999271 W
            Runtime Dynamic = 0 W

              Integer RF:
                Area = 0.749997 mm^2
                Peak Dynamic = 0 W
                Subthreshold Leakage = 0.00484773 W
                Subthreshold Leakage with power gating = 0.00224312 W
                Gate Leakage = 0.000645553 W
                Runtime Dynamic = 0 W

              Floating Point RF:
                Area = 0.420137 mm^2
                Peak Dynamic = 0 W
                Subthreshold Leakage = 0.00289546 W
                Subthreshold Leakage with power gating = 0.0013918 W
                Gate Leakage = 0.000353718 W
                Runtime Dynamic = 0 W

          Instruction Scheduler:
            Area = 4.66183 mm^2
            Peak Dynamic = 3.86192 W
            Subthreshold Leakage = 0.0916813 W
            Subthreshold Leakage with power gating = 0.0520251 W
            Gate Leakage = 0.0120132 W
            Runtime Dynamic = 0 W

              Instruction Window:
                Area = 2.22085 mm^2
                Peak Dynamic = 1.8176 W
                Subthreshold Leakage = 0.0700879 W
                Subthreshold Leakage with power gating = 0.0399235 W
                Gate Leakage = 0.00960014 W
                Runtime Dynamic = 0 W

              FP Instruction Window:
                Area = 0.328065 mm^2
                Peak Dynamic = 0.497778 W
                Subthreshold Leakage = 0.00690732 W
                Subthreshold Leakage with power gating = 0.0039106 W
                Gate Leakage = 0.000979629 W
                Runtime Dynamic = 0 W

              ROB:
                Area = 2.11292 mm^2
                Peak Dynamic = 1.54653 W
                Subthreshold Leakage = 0.0146861 W
                Subthreshold Leakage with power gating = 0.00819096 W
                Gate Leakage = 0.00143341 W
                Runtime Dynamic = 0 W

          Integer ALUs (Count: 9 ):
            Area = 0.706306 mm^2
            Peak Dynamic = 0 W
            Subthreshold Leakage = 0.242465 W
            Subthreshold Leakage with power gating = 0.109109 W
            Gate Leakage = 0.0331614 W
            Runtime Dynamic = 0.070378 W

          Floating Point Units (FPUs) (Count: 2 ):
            Area = 4.6585 mm^2
            Peak Dynamic = 0 W
            Subthreshold Leakage = 0.3998 W
            Subthreshold Leakage with power gating = 0.17991 W
            Gate Leakage = 0.0546797 W
            Runtime Dynamic = 0.211134 W

          Complex ALUs (Mul/Div) (Count: 1 ):
            Area = 0.235435 mm^2
            Peak Dynamic = 0 W
            Subthreshold Leakage = 0.0808216 W
            Subthreshold Leakage with power gating = 0.0363697 W
            Gate Leakage = 0.0110538 W
            Runtime Dynamic = 0.140756 W

          Results Broadcast Bus:
            Area Overhead = 0.0602106 mm^2
            Peak Dynamic = 0 W
            Subthreshold Leakage = 0.0492971 W
            Subthreshold Leakage with power gating = 0.0221837 W
            Gate Leakage = 0.00674225 W
            Runtime Dynamic = 0 W

    L2
    Area = 8.77928 mm^2
    Peak Dynamic = 0 W
    Subthreshold Leakage = 0.797449 W
    Subthreshold Leakage with power gating = 0.44906 W
    Gate Leakage = 0.0171755 W
    Runtime Dynamic = 3.06304e-07 W

*****************************************************************************************
Core:
      Area = 43.2304 mm^2
      Peak Dynamic = 8.76183 W
      Subthreshold Leakage = 3.16961 W
      Subthreshold Leakage with power gating = 1.56596 W
      Gate Leakage = 0.350703 W
      Runtime Dynamic = 0.422269 W

      Instruction Fetch Unit:
        Area = 8.7823 mm^2
        Peak Dynamic = 1.62783 W
        Subthreshold Leakage = 0.433903 W
        Subthreshold Leakage with power gating = 0.213688 W
        Gate Leakage = 0.0624842 W
        Runtime Dynamic = 7.10966e-08 W

          Instruction Cache:
            Area = 4.95184 mm^2
            Peak Dynamic = 0 W
            Subthreshold Leakage = 0.197988 W
            Subthreshold Leakage with power gating = 0.10139 W
            Gate Leakage = 0.035734 W
            Runtime Dynamic = 0 W

          Branch Target Buffer:
            Area = 0.789969 mm^2
            Peak Dynamic = 0.0759001 W
            Subthreshold Leakage = 0.0368499 W
            Subthreshold Leakage with power gating = 0.021557 W
            Gate Leakage = 0.00333823 W
            Runtime Dynamic = 0 W

          Branch Predictor:
            Area = 0.139613 mm^2
            Peak Dynamic = 0.0253502 W
            Subthreshold Leakage = 0.00802563 W
            Subthreshold Leakage with power gating = 0.00469502 W
            Gate Leakage = 0.000631381 W
            Runtime Dynamic = 0 W

              Global Predictor:
                Area = 0.0443718 mm^2
                Peak Dynamic = 0.0073166 W
                Subthreshold Leakage = 0.00305314 W
                Subthreshold Leakage with power gating = 0.00178441 W
                Gate Leakage = 0.000231968 W
                Runtime Dynamic = 0 W

              Local Predictor:
              L1_Local Predictor:
                Area = 0.0264164 mm^2
                Peak Dynamic = 0.00596243 W
                Subthreshold Leakage = 0.00154459 W
                Subthreshold Leakage with power gating = 0.000902955 W
                Gate Leakage = 0.00012879 W
                Runtime Dynamic = 0 W

              L2_Local Predictor:
                Area = 0.0135618 mm^2
                Peak Dynamic = 0.00304081 W
                Subthreshold Leakage = 0.000782464 W
                Subthreshold Leakage with power gating = 0.000456083 W
                Gate Leakage = 6.76797e-05 W
                Runtime Dynamic = 0 W

              Chooser:
                Area = 0.0443718 mm^2
                Peak Dynamic = 0.0073166 W
                Subthreshold Leakage = 0.00305314 W
                Subthreshold Leakage with power gating = 0.00178441 W
                Gate Leakage = 0.000231968 W
                Runtime Dynamic = 0 W

              RAS:
                Area = 0.0108915 mm^2
                Peak Dynamic = 0.00475453 W
                Subthreshold Leakage = 0.000374753 W
                Subthreshold Leakage with power gating = 0.000223242 W
                Gate Leakage = 3.86548e-05 W
                Runtime Dynamic = 0 W

          Instruction Buffer:
            Area = 0.0463126 mm^2
            Peak Dynamic = 0.719463 W
            Subthreshold Leakage = 0.000993296 W
            Subthreshold Leakage with power gating = 0.000525149 W
            Gate Leakage = 9.63964e-05 W
            Runtime Dynamic = 0 W

          Instruction Decoder:
            Area = 2.78698 mm^2
            Peak Dynamic = 0.807118 W
            Subthreshold Leakage = 0.178009 W
            Subthreshold Leakage with power gating = 0.080104 W
            Gate Leakage = 0.0185411 W
            Runtime Dynamic = 0 W

      Renaming Unit:
        Area = 0.55916 mm^2
        Peak Dynamic = 2.68412 W
        Subthreshold Leakage = 0.0341099 W
        Subthreshold Leakage with power gating = 0.0180116 W
        Gate Leakage = 0.00878169 W
        Runtime Dynamic = 7.10966e-08 W

          Int Front End RAT:
            Area = 0.224957 mm^2
            Peak Dynamic = 0.988468 W
            Subthreshold Leakage = 0.00388114 W
            Subthreshold Leakage with power gating = 0.00221225 W
            Gate Leakage = 0.000497349 W
            Runtime Dynamic = 0 W

          FP Front End RAT:
            Area = 0.168486 mm^2
            Peak Dynamic = 1.4632 W
            Subthreshold Leakage = 0.0175733 W
            Subthreshold Leakage with power gating = 0.0100168 W
            Gate Leakage = 0.00408109 W
            Runtime Dynamic = 0 W

          Free List:
            Area = 0.098125 mm^2
            Peak Dynamic = 0.0462146 W
            Subthreshold Leakage = 0.000618071 W
            Subthreshold Leakage with power gating = 0.000365734 W
            Gate Leakage = 6.01459e-05 W
            Runtime Dynamic = 0 W

      Load Store Unit:
        Area = 8.93636 mm^2
        Peak Dynamic = 0.494853 W
        Subthreshold Leakage = 0.243502 W
        Subthreshold Leakage with power gating = 0.125782 W
        Gate Leakage = 0.0309037 W
        Runtime Dynamic = 7.10966e-08 W

          Data Cache:
            Area = 6.93142 mm^2
            Peak Dynamic = 0.494853 W
            Subthreshold Leakage = 0.213789 W
[...]
            Subthreshold Leakage with power gating = 0.00221225 W
            Gate Leakage = 0.000497349 W
            Runtime Dynamic = 0 W

          FP Front End RAT:
            Area = 0.168486 mm^2
            Peak Dynamic = 1.4632 W
            Subthreshold Leakage = 0.0175733 W
            Subthreshold Leakage with power gating = 0.0100168 W
            Gate Leakage = 0.00408109 W
            Runtime Dynamic = 0 W

          Free List:
            Area = 0.098125 mm^2
            Peak Dynamic = 0.0462146 W
            Subthreshold Leakage = 0.000618071 W
            Subthreshold Leakage with power gating = 0.000365734 W
            Gate Leakage = 6.01459e-05 W
            Runtime Dynamic = 0 W

      Load Store Unit:
        Area = 8.93636 mm^2
        Peak Dynamic = 0.494853 W
        Subthreshold Leakage = 0.243502 W
        Subthreshold Leakage with power gating = 0.125782 W
        Gate Leakage = 0.0309037 W
        Runtime Dynamic = 7.10966e-08 W

          Data Cache:
            Area = 6.93142 mm^2
            Peak Dynamic = 0.494853 W
            Subthreshold Leakage = 0.213789 W
            Subthreshold Leakage with power gating = 0.11029 W
            Gate Leakage = 0.0235117 W
            Runtime Dynamic = 0 W

          LoadQ:
            Area = 0.083675 mm^2
            Peak Dynamic = 0 W
            Subthreshold Leakage = 0.00378553 W
            Subthreshold Leakage with power gating = 0.00215775 W
            Gate Leakage = 0.000499133 W
            Runtime Dynamic = 0 W

          StoreQ:
            Area = 0.322068 mm^2
            Peak Dynamic = 0 W
            Subthreshold Leakage = 0.0138897 W
            Subthreshold Leakage with power gating = 0.00791712 W
            Gate Leakage = 0.00274976 W
            Runtime Dynamic = 0 W

      Memory Management Unit:
        Area = 0.216644 mm^2
        Peak Dynamic = 0.093117 W
        Subthreshold Leakage = 0.0221339 W
        Subthreshold Leakage with power gating = 0.0111719 W
        Gate Leakage = 0.00535145 W
        Runtime Dynamic = 7.10966e-08 W

          Itlb:
            Area = 0.0610812 mm^2
            Peak Dynamic = 0 W
            Subthreshold Leakage = 0.00383935 W
            Subthreshold Leakage with power gating = 0.00218843 W
            Gate Leakage = 0.000468934 W
            Runtime Dynamic = 0 W

          Dtlb:
            Area = 0.087971 mm^2
            Peak Dynamic = 0 W
            Subthreshold Leakage = 0.0062572 W
            Subthreshold Leakage with power gating = 0.0035666 W
            Gate Leakage = 0.000739408 W
            Runtime Dynamic = 0 W

      Execution Unit:
        Area = 11.56 mm^2
        Peak Dynamic = 3.86192 W
        Subthreshold Leakage = 0.883845 W
        Subthreshold Leakage with power gating = 0.408649 W
        Gate Leakage = 0.122793 W
        Runtime Dynamic = 0.422268 W

          Register Files:
            Area = 1.17013 mm^2
            Peak Dynamic = 0 W
            Subthreshold Leakage = 0.00774319 W
            Subthreshold Leakage with power gating = 0.00363493 W
            Gate Leakage = 0.000999271 W
            Runtime Dynamic = 0 W

              Integer RF:
                Area = 0.749997 mm^2
                Peak Dynamic = 0 W
                Subthreshold Leakage = 0.00484773 W
                Subthreshold Leakage with power gating = 0.00224312 W
                Gate Leakage = 0.000645553 W
                Runtime Dynamic = 0 W

              Floating Point RF:
                Area = 0.420137 mm^2
                Peak Dynamic = 0 W
                Subthreshold Leakage = 0.00289546 W
                Subthreshold Leakage with power gating = 0.0013918 W
                Gate Leakage = 0.000353718 W
                Runtime Dynamic = 0 W

          Instruction Scheduler:
            Area = 4.66183 mm^2
            Peak Dynamic = 3.86192 W
            Subthreshold Leakage = 0.0916813 W
            Subthreshold Leakage with power gating = 0.0520251 W
            Gate Leakage = 0.0120132 W
            Runtime Dynamic = 0 W

              Instruction Window:
                Area = 2.22085 mm^2
                Peak Dynamic = 1.8176 W
                Subthreshold Leakage = 0.0700879 W
                Subthreshold Leakage with power gating = 0.0399235 W
                Gate Leakage = 0.00960014 W
                Runtime Dynamic = 0 W

              FP Instruction Window:
                Area = 0.328065 mm^2
                Peak Dynamic = 0.497778 W
                Subthreshold Leakage = 0.00690732 W
                Subthreshold Leakage with power gating = 0.0039106 W
                Gate Leakage = 0.000979629 W
                Runtime Dynamic = 0 W

              ROB:
                Area = 2.11292 mm^2
                Peak Dynamic = 1.54653 W
                Subthreshold Leakage = 0.0146861 W
                Subthreshold Leakage with power gating = 0.00819096 W
                Gate Leakage = 0.00143341 W
                Runtime Dynamic = 0 W

          Integer ALUs (Count: 9 ):
            Area = 0.706306 mm^2
            Peak Dynamic = 0 W
            Subthreshold Leakage = 0.242465 W
            Subthreshold Leakage with power gating = 0.109109 W
            Gate Leakage = 0.0331614 W
            Runtime Dynamic = 0.070378 W

          Floating Point Units (FPUs) (Count: 2 ):
            Area = 4.6585 mm^2
            Peak Dynamic = 0 W
            Subthreshold Leakage = 0.3998 W
            Subthreshold Leakage with power gating = 0.17991 W
            Gate Leakage = 0.0546797 W
            Runtime Dynamic = 0.211134 W

          Complex ALUs (Mul/Div) (Count: 1 ):
            Area = 0.235435 mm^2
            Peak Dynamic = 0 W
            Subthreshold Leakage = 0.0808216 W
            Subthreshold Leakage with power gating = 0.0363697 W
            Gate Leakage = 0.0110538 W
            Runtime Dynamic = 0.140756 W

          Results Broadcast Bus:
            Area Overhead = 0.0602106 mm^2
            Peak Dynamic = 0 W
            Subthreshold Leakage = 0.0492971 W
            Subthreshold Leakage with power gating = 0.0221837 W
            Gate Leakage = 0.00674225 W
            Runtime Dynamic = 0 W

    L2
    Area = 8.77928 mm^2
    Peak Dynamic = 0 W
    Subthreshold Leakage = 0.797449 W
    Subthreshold Leakage with power gating = 0.44906 W
    Gate Leakage = 0.0171755 W
    Runtime Dynamic = 3.06304e-07 W

*****************************************************************************************
Core:
      Area = 43.2304 mm^2
      Peak Dynamic = 8.76183 W
      Subthreshold Leakage = 3.16961 W
      Subthreshold Leakage with power gating = 1.56596 W
      Gate Leakage = 0.350703 W
      Runtime Dynamic = 0.422269 W

      Instruction Fetch Unit:
        Area = 8.7823 mm^2
        Peak Dynamic = 1.62783 W
        Subthreshold Leakage = 0.433903 W
        Subthreshold Leakage with power gating = 0.213688 W
        Gate Leakage = 0.0624842 W
        Runtime Dynamic = 7.10966e-08 W

          Instruction Cache:
            Area = 4.95184 mm^2
            Peak Dynamic = 0 W
            Subthreshold Leakage = 0.197988 W
            Subthreshold Leakage with power gating = 0.10139 W
            Gate Leakage = 0.035734 W
            Runtime Dynamic = 0 W

          Branch Target Buffer:
            Area = 0.789969 mm^2
            Peak Dynamic = 0.0759001 W
            Subthreshold Leakage = 0.0368499 W
            Subthreshold Leakage with power gating = 0.021557 W
            Gate Leakage = 0.00333823 W
            Runtime Dynamic = 0 W

          Branch Predictor:
            Area = 0.139613 mm^2
            Peak Dynamic = 0.0253502 W
            Subthreshold Leakage = 0.00802563 W
            Subthreshold Leakage with power gating = 0.00469502 W
            Gate Leakage = 0.000631381 W
            Runtime Dynamic = 0 W

              Global Predictor:
                Area = 0.0443718 mm^2
                Peak Dynamic = 0.0073166 W
                Subthreshold Leakage = 0.00305314 W
                Subthreshold Leakage with power gating = 0.00178441 W
                Gate Leakage = 0.000231968 W
                Runtime Dynamic = 0 W

              Local Predictor:
              L1_Local Predictor:
                Area = 0.0264164 mm^2
                Peak Dynamic = 0.00596243 W
                Subthreshold Leakage = 0.00154459 W
                Subthreshold Leakage with power gating = 0.000902955 W
                Gate Leakage = 0.00012879 W
                Runtime Dynamic = 0 W

              L2_Local Predictor:
                Area = 0.0135618 mm^2
                Peak Dynamic = 0.00304081 W
                Subthreshold Leakage = 0.000782464 W
                Subthreshold Leakage with power gating = 0.000456083 W
                Gate Leakage = 6.76797e-05 W
                Runtime Dynamic = 0 W

              Chooser:
                Area = 0.0443718 mm^2
                Peak Dynamic = 0.0073166 W
                Subthreshold Leakage = 0.00305314 W
                Subthreshold Leakage with power gating = 0.00178441 W
                Gate Leakage = 0.000231968 W
                Runtime Dynamic = 0 W

              RAS:
                Area = 0.0108915 mm^2
                Peak Dynamic = 0.00475453 W
                Subthreshold Leakage = 0.000374753 W
                Subthreshold Leakage with power gating = 0.000223242 W
                Gate Leakage = 3.86548e-05 W
                Runtime Dynamic = 0 W

          Instruction Buffer:
            Area = 0.0463126 mm^2
            Peak Dynamic = 0.719463 W
            Subthreshold Leakage = 0.000993296 W
            Subthreshold Leakage with power gating = 0.000525149 W
            Gate Leakage = 9.63964e-05 W
            Runtime Dynamic = 0 W

          Instruction Decoder:
            Area = 2.78698 mm^2
            Peak Dynamic = 0.807118 W
            Subthreshold Leakage = 0.178009 W
            Subthreshold Leakage with power gating = 0.080104 W
            Gate Leakage = 0.0185411 W
            Runtime Dynamic = 0 W

      Renaming Unit:
        Area = 0.55916 mm^2
        Peak Dynamic = 2.68412 W
        Subthreshold Leakage = 0.0341099 W
        Subthreshold Leakage with power gating = 0.0180116 W
        Gate Leakage = 0.00878169 W
        Runtime Dynamic = 7.10966e-08 W

          Int Front End RAT:
            Area = 0.224957 mm^2
            Peak Dynamic = 0.988468 W
            Subthreshold Leakage = 0.00388114 W
            Subthreshold Leakage with power gating = 0.00221225 W
            Gate Leakage = 0.000497349 W
            Runtime Dynamic = 0 W

          FP Front End RAT:
            Area = 0.168486 mm^2
            Peak Dynamic = 1.4632 W
            Subthreshold Leakage = 0.0175733 W
            Subthreshold Leakage with power gating = 0.0100168 W
            Gate Leakage = 0.00408109 W
            Runtime Dynamic = 0 W

          Free List:
            Area = 0.098125 mm^2
            Peak Dynamic = 0.0462146 W
            Subthreshold Leakage = 0.000618071 W
            Subthreshold Leakage with power gating = 0.000365734 W
            Gate Leakage = 6.01459e-05 W
            Runtime Dynamic = 0 W

      Load Store Unit:
        Area = 8.93636 mm^2
        Peak Dynamic = 0.494853 W
        Subthreshold Leakage = 0.243502 W
        Subthreshold Leakage with power gating = 0.125782 W
        Gate Leakage = 0.0309037 W
        Runtime Dynamic = 7.10966e-08 W

          Data Cache:
            Area = 6.93142 mm^2
            Peak Dynamic = 0.494853 W
            Subthreshold Leakage = 0.213789 W
            Subthreshold Leakage with power gating = 0.11029 W
            Gate Leakage = 0.0235117 W
            Runtime Dynamic = 0 W

          LoadQ:
            Area = 0.083675 mm^2
            Peak Dynamic = 0 W
            Subthreshold Leakage = 0.00378553 W
            Subthreshold Leakage with power gating = 0.00215775 W
            Gate Leakage = 0.000499133 W
            Runtime Dynamic = 0 W

          StoreQ:
            Area = 0.322068 mm^2
            Peak Dynamic = 0 W
            Subthreshold Leakage = 0.0138897 W
            Subthreshold Leakage with power gating = 0.00791712 W
            Gate Leakage = 0.00274976 W
            Runtime Dynamic = 0 W

      Memory Management Unit:
        Area = 0.216644 mm^2
        Peak Dynamic = 0.093117 W
        Subthreshold Leakage = 0.0221339 W
        Subthreshold Leakage with power gating = 0.0111719 W
        Gate Leakage = 0.00535145 W
        Runtime Dynamic = 7.10966e-08 W

          Itlb:
            Area = 0.0610812 mm^2
            Peak Dynamic = 0 W
            Subthreshold Leakage = 0.00383935 W
            Subthreshold Leakage with power gating = 0.00218843 W
            Gate Leakage = 0.000468934 W
            Runtime Dynamic = 0 W

          Dtlb:
            Area = 0.087971 mm^2
            Peak Dynamic = 0 W
            Subthreshold Leakage = 0.0062572 W
            Subthreshold Leakage with power gating = 0.0035666 W
            Gate Leakage = 0.000739408 W
            Runtime Dynamic = 0 W

      Execution Unit:
        Area = 11.56 mm^2
        Peak Dynamic = 3.86192 W
        Subthreshold Leakage = 0.883845 W
        Subthreshold Leakage with power gating = 0.408649 W
        Gate Leakage = 0.122793 W
        Runtime Dynamic = 0.422268 W

          Register Files:
            Area = 1.17013 mm^2
            Peak Dynamic = 0 W
            Subthreshold Leakage = 0.00774319 W
            Subthreshold Leakage with power gating = 0.00363493 W
            Gate Leakage = 0.000999271 W
            Runtime Dynamic = 0 W

              Integer RF:
                Area = 0.749997 mm^2
                Peak Dynamic = 0 W
                Subthreshold Leakage = 0.00484773 W
                Subthreshold Leakage with power gating = 0.00224312 W
                Gate Leakage = 0.000645553 W
                Runtime Dynamic = 0 W

              Floating Point RF:
                Area = 0.420137 mm^2
                Peak Dynamic = 0 W
                Subthreshold Leakage = 0.00289546 W
                Subthreshold Leakage with power gating = 0.0013918 W
                Gate Leakage = 0.000353718 W
                Runtime Dynamic = 0 W

          Instruction Scheduler:
            Area = 4.66183 mm^2
            Peak Dynamic = 3.86192 W
            Subthreshold Leakage = 0.0916813 W
            Subthreshold Leakage with power gating = 0.0520251 W
            Gate Leakage = 0.0120132 W
            Runtime Dynamic = 0 W

              Instruction Window:
                Area = 2.22085 mm^2
                Peak Dynamic = 1.8176 W
                Subthreshold Leakage = 0.0700879 W
                Subthreshold Leakage with power gating = 0.0399235 W
                Gate Leakage = 0.00960014 W
                Runtime Dynamic = 0 W

              FP Instruction Window:
                Area = 0.328065 mm^2
                Peak Dynamic = 0.497778 W
                Subthreshold Leakage = 0.00690732 W
                Subthreshold Leakage with power gating = 0.0039106 W
                Gate Leakage = 0.000979629 W
                Runtime Dynamic = 0 W

              ROB:
                Area = 2.11292 mm^2
                Peak Dynamic = 1.54653 W
                Subthreshold Leakage = 0.0146861 W
                Subthreshold Leakage with power gating = 0.00819096 W
                Gate Leakage = 0.00143341 W
                Runtime Dynamic = 0 W

          Integer ALUs (Count: 9 ):
            Area = 0.706306 mm^2
            Peak Dynamic = 0 W
            Subthreshold Leakage = 0.242465 W
            Subthreshold Leakage with power gating = 0.109109 W
            Gate Leakage = 0.0331614 W
            Runtime Dynamic = 0.070378 W

          Floating Point Units (FPUs) (Count: 2 ):
            Area = 4.6585 mm^2
            Peak Dynamic = 0 W
            Subthreshold Leakage = 0.3998 W
            Subthreshold Leakage with power gating = 0.17991 W
            Gate Leakage = 0.0546797 W
            Runtime Dynamic = 0.211134 W

          Complex ALUs (Mul/Div) (Count: 1 ):
            Area = 0.235435 mm^2
            Peak Dynamic = 0 W
            Subthreshold Leakage = 0.0808216 W
            Subthreshold Leakage with power gating = 0.0363697 W
            Gate Leakage = 0.0110538 W
            Runtime Dynamic = 0.140756 W

          Results Broadcast Bus:
            Area Overhead = 0.0602106 mm^2
            Peak Dynamic = 0 W
            Subthreshold Leakage = 0.0492971 W
            Subthreshold Leakage with power gating = 0.0221837 W
            Gate Leakage = 0.00674225 W
            Runtime Dynamic = 0 W

    L2
    Area = 8.77928 mm^2
    Peak Dynamic = 0 W
    Subthreshold Leakage = 0.797449 W
    Subthreshold Leakage with power gating = 0.44906 W
    Gate Leakage = 0.0171755 W
    Runtime Dynamic = 3.06304e-07 W

*****************************************************************************************
      L3
      Area = 227.378 mm^2
      Peak Dynamic = 0.0331386 W
      Subthreshold Leakage = 9.30012 W
      Subthreshold Leakage with power gating = 5.44842 W
      Gate Leakage = 0.105133 W
      Runtime Dynamic = 0.00620043 W

*****************************************************************************************
      L3
      Area = 227.378 mm^2
      Peak Dynamic = 0 W
      Subthreshold Leakage = 9.30012 W
      Subthreshold Leakage with power gating = 5.44842 W
      Gate Leakage = 0.105133 W
      Runtime Dynamic = 3.06304e-07 W

*****************************************************************************************
      L3
      Area = 227.378 mm^2
      Peak Dynamic = 0 W
      Subthreshold Leakage = 9.30012 W
      Subthreshold Leakage with power gating = 5.44842 W
      Gate Leakage = 0.105133 W
      Runtime Dynamic = 3.06304e-07 W

*****************************************************************************************
      L3
      Area = 227.378 mm^2
      Peak Dynamic = 0 W
      Subthreshold Leakage = 9.30012 W
      Subthreshold Leakage with power gating = 5.44842 W
      Gate Leakage = 0.105133 W
      Runtime Dynamic = 3.06304e-07 W

*****************************************************************************************
      L3
      Area = 227.378 mm^2
      Peak Dynamic = 0 W
      Subthreshold Leakage = 9.30012 W
      Subthreshold Leakage with power gating = 5.44842 W
      Gate Leakage = 0.105133 W
      Runtime Dynamic = 3.06304e-07 W

*****************************************************************************************
      L3
      Area = 227.378 mm^2
      Peak Dynamic = 0 W
      Subthreshold Leakage = 9.30012 W
      Subthreshold Leakage with power gating = 5.44842 W
      Gate Leakage = 0.105133 W
      Runtime Dynamic = 3.06304e-07 W

*****************************************************************************************
      L3
      Area = 227.378 mm^2
      Peak Dynamic = 0 W
      Subthreshold Leakage = 9.30012 W
      Subthreshold Leakage with power gating = 5.44842 W
      Gate Leakage = 0.105133 W
      Runtime Dynamic = 3.06304e-07 W

*****************************************************************************************
      L3
      Area = 227.378 mm^2
      Peak Dynamic = 0 W
      Subthreshold Leakage = 9.30012 W
      Subthreshold Leakage with power gating = 5.44842 W
      Gate Leakage = 0.105133 W
      Runtime Dynamic = 3.06304e-07 W

*****************************************************************************************
BUSES
      Area = 12.7886 mm^2
      Peak Dynamic = 0 W
      Subthreshold Leakage = 0.143777 W
      Subthreshold Leakage with power gating = 0.0646998 W
      Gate Leakage = 0.0285903 W
      Runtime Dynamic = 5.11343e-06 W

      Bus: 
        Area = 12.7886 mm^2
        Peak Dynamic = 0 W
        Subthreshold Leakage = 0.143777 W
        Subthreshold Leakage with power gating = 0.0646998 W
        Gate Leakage = 0.0285903 W
        Runtime Dynamic = 5.11343e-06 W

*****************************************************************************************
