McPAT (version 1.0 of Aug, 2013) is computing the target processor...
 

McPAT (version 1.0 of Aug, 2013) results  (current print level is 5)
*****************************************************************************************
  Technology 45 nm
  Using Long Channel Devices When Appropriate
  Interconnect metal projection= aggressive interconnect technology projection
  Core clock Rate(MHz) 1500

*****************************************************************************************
Processor: 
  Area = 4585.94 mm^2
  Peak Power = 866.974 W
  Total Leakage = 300.544 W
  Peak Dynamic = 566.429 W
  Subthreshold Leakage = 277.258 W
  Subthreshold Leakage with power gating = 148.114 W
  Gate Leakage = 23.2866 W
  Runtime Dynamic = 29.9392 W

  Total Cores: 64 cores 
  Device Type= ITRS high performance device type
    Area = 2766.75 mm^2
    Peak Dynamic = 566.33 W
    Subthreshold Leakage = 202.855 W
    Subthreshold Leakage with power gating = 100.221 W
    Gate Leakage = 22.445 W
    Runtime Dynamic = 29.9315 W

  Total L3s: 
  Device Type= ITRS high performance device type
    Area = 1819.02 mm^2
    Peak Dynamic = 0.0407747 W
    Subthreshold Leakage = 74.401 W
    Subthreshold Leakage with power gating = 43.5874 W
    Gate Leakage = 0.841065 W
    Runtime Dynamic = 0.00745014 W

  Total NoCs (Network/Bus): 
  Device Type= ITRS high performance device type
    Area = 0.171962 mm^2
    Peak Dynamic = 0.0589061 W
    Subthreshold Leakage = 0.00221693 W
    Subthreshold Leakage with power gating = 0.00126365 W
    Gate Leakage = 0.00055251 W
    Runtime Dynamic = 0.000267753 W

*****************************************************************************************
Core:
      Area = 43.2304 mm^2
      Peak Dynamic = 14.3342 W
      Subthreshold Leakage = 3.16961 W
      Subthreshold Leakage with power gating = 1.56596 W
      Gate Leakage = 0.350703 W
      Runtime Dynamic = 3.32857 W

      Instruction Fetch Unit:
        Area = 8.7823 mm^2
        Peak Dynamic = 5.51372 W
        Subthreshold Leakage = 0.433903 W
        Subthreshold Leakage with power gating = 0.213688 W
        Gate Leakage = 0.0624842 W
        Runtime Dynamic = 0.432956 W

          Instruction Cache:
            Area = 4.95184 mm^2
            Peak Dynamic = 3.69966 W
            Subthreshold Leakage = 0.197988 W
            Subthreshold Leakage with power gating = 0.10139 W
            Gate Leakage = 0.035734 W
            Runtime Dynamic = 0.181331 W

          Branch Target Buffer:
            Area = 0.789969 mm^2
            Peak Dynamic = 0.0759001 W
            Subthreshold Leakage = 0.0368499 W
            Subthreshold Leakage with power gating = 0.021557 W
            Gate Leakage = 0.00333823 W
            Runtime Dynamic = 0.0128767 W

          Branch Predictor:
            Area = 0.139613 mm^2
            Peak Dynamic = 0.0253502 W
            Subthreshold Leakage = 0.00802563 W
            Subthreshold Leakage with power gating = 0.00469502 W
            Gate Leakage = 0.000631381 W
            Runtime Dynamic = 0.00444098 W

              Global Predictor:
                Area = 0.0443718 mm^2
                Peak Dynamic = 0.0073166 W
                Subthreshold Leakage = 0.00305314 W
                Subthreshold Leakage with power gating = 0.00178441 W
                Gate Leakage = 0.000231968 W
                Runtime Dynamic = 0.00133345 W

              Local Predictor:
              L1_Local Predictor:
                Area = 0.0264164 mm^2
                Peak Dynamic = 0.00596243 W
                Subthreshold Leakage = 0.00154459 W
                Subthreshold Leakage with power gating = 0.000902955 W
                Gate Leakage = 0.00012879 W
                Runtime Dynamic = 0.00111675 W

              L2_Local Predictor:
                Area = 0.0135618 mm^2
                Peak Dynamic = 0.00304081 W
                Subthreshold Leakage = 0.000782464 W
                Subthreshold Leakage with power gating = 0.000456083 W
                Gate Leakage = 6.76797e-05 W
                Runtime Dynamic = 0.000569643 W

              Chooser:
                Area = 0.0443718 mm^2
                Peak Dynamic = 0.0073166 W
                Subthreshold Leakage = 0.00305314 W
                Subthreshold Leakage with power gating = 0.00178441 W
                Gate Leakage = 0.000231968 W
                Runtime Dynamic = 0.00133345 W

              RAS:
                Area = 0.0108915 mm^2
                Peak Dynamic = 0.00475453 W
                Subthreshold Leakage = 0.000374753 W
                Subthreshold Leakage with power gating = 0.000223242 W
                Gate Leakage = 3.86548e-05 W
                Runtime Dynamic = 0.00065733 W

          Instruction Buffer:
            Area = 0.0463126 mm^2
            Peak Dynamic = 0.719463 W
            Subthreshold Leakage = 0.000993296 W
            Subthreshold Leakage with power gating = 0.000525149 W
            Gate Leakage = 9.63964e-05 W
            Runtime Dynamic = 0.0873385 W

          Instruction Decoder:
            Area = 2.78698 mm^2
            Peak Dynamic = 0.807118 W
            Subthreshold Leakage = 0.178009 W
            Subthreshold Leakage with power gating = 0.080104 W
            Gate Leakage = 0.0185411 W
            Runtime Dynamic = 0.146969 W

      Renaming Unit:
        Area = 0.55916 mm^2
        Peak Dynamic = 2.68412 W
        Subthreshold Leakage = 0.0341099 W
        Subthreshold Leakage with power gating = 0.0180116 W
        Gate Leakage = 0.00878169 W
        Runtime Dynamic = 0.192019 W

          Int Front End RAT:
            Area = 0.224957 mm^2
            Peak Dynamic = 0.988468 W
            Subthreshold Leakage = 0.00388114 W
            Subthreshold Leakage with power gating = 0.00221225 W
            Gate Leakage = 0.000497349 W
            Runtime Dynamic = 0.175189 W

          FP Front End RAT:
            Area = 0.168486 mm^2
            Peak Dynamic = 1.4632 W
            Subthreshold Leakage = 0.0175733 W
            Subthreshold Leakage with power gating = 0.0100168 W
            Gate Leakage = 0.00408109 W
            Runtime Dynamic = 0 W

          Free List:
            Area = 0.098125 mm^2
            Peak Dynamic = 0.0462146 W
            Subthreshold Leakage = 0.000618071 W
            Subthreshold Leakage with power gating = 0.000365734 W
            Gate Leakage = 6.01459e-05 W
            Runtime Dynamic = 0.0168305 W

      Load Store Unit:
        Area = 8.93636 mm^2
        Peak Dynamic = 1.68824 W
        Subthreshold Leakage = 0.243502 W
        Subthreshold Leakage with power gating = 0.125782 W
        Gate Leakage = 0.0309037 W
        Runtime Dynamic = 0.689662 W

          Data Cache:
            Area = 6.93142 mm^2
            Peak Dynamic = 1.51353 W
            Subthreshold Leakage = 0.213789 W
            Subthreshold Leakage with power gating = 0.11029 W
            Gate Leakage = 0.0235117 W
            Runtime Dynamic = 0.495924 W

          LoadQ:
            Area = 0.083675 mm^2
            Peak Dynamic = 0.032668 W
            Subthreshold Leakage = 0.00378553 W
            Subthreshold Leakage with power gating = 0.00215775 W
            Gate Leakage = 0.000499133 W
            Runtime Dynamic = 0.032668 W

          StoreQ:
            Area = 0.322068 mm^2
            Peak Dynamic = 0.080535 W
            Subthreshold Leakage = 0.0138897 W
            Subthreshold Leakage with power gating = 0.00791712 W
            Gate Leakage = 0.00274976 W
            Runtime Dynamic = 0.16107 W

      Memory Management Unit:
        Area = 0.216644 mm^2
        Peak Dynamic = 0.201553 W
        Subthreshold Leakage = 0.0221339 W
        Subthreshold Leakage with power gating = 0.0111719 W
        Gate Leakage = 0.00535145 W
        Runtime Dynamic = 0.0326256 W

          Itlb:
            Area = 0.0610812 mm^2
            Peak Dynamic = 0.0494861 W
            Subthreshold Leakage = 0.00383935 W
            Subthreshold Leakage with power gating = 0.00218843 W
            Gate Leakage = 0.000468934 W
            Runtime Dynamic = 0.00418737 W

          Dtlb:
            Area = 0.087971 mm^2
            Peak Dynamic = 0.0281953 W
            Subthreshold Leakage = 0.0062572 W
            Subthreshold Leakage with power gating = 0.0035666 W
            Gate Leakage = 0.000739408 W
            Runtime Dynamic = 0.0284382 W

      Execution Unit:
        Area = 11.56 mm^2
        Peak Dynamic = 4.22336 W
        Subthreshold Leakage = 0.883845 W
        Subthreshold Leakage with power gating = 0.408649 W
        Gate Leakage = 0.122793 W
        Runtime Dynamic = 1.97528 W

          Register Files:
            Area = 1.17013 mm^2
            Peak Dynamic = 0.0636045 W
            Subthreshold Leakage = 0.00774319 W
            Subthreshold Leakage with power gating = 0.00363493 W
            Gate Leakage = 0.000999271 W
            Runtime Dynamic = 0.0735571 W

              Integer RF:
                Area = 0.749997 mm^2
                Peak Dynamic = 0.0636045 W
                Subthreshold Leakage = 0.00484773 W
                Subthreshold Leakage with power gating = 0.00224312 W
                Gate Leakage = 0.000645553 W
                Runtime Dynamic = 0.06505 W

              Floating Point RF:
                Area = 0.420137 mm^2
                Peak Dynamic = 0 W
                Subthreshold Leakage = 0.00289546 W
                Subthreshold Leakage with power gating = 0.0013918 W
                Gate Leakage = 0.000353718 W
                Runtime Dynamic = 0.00850703 W

          Instruction Scheduler:
            Area = 4.66183 mm^2
            Peak Dynamic = 3.86192 W
            Subthreshold Leakage = 0.0916813 W
            Subthreshold Leakage with power gating = 0.0520251 W
            Gate Leakage = 0.0120132 W
            Runtime Dynamic = 0.902389 W

              Instruction Window:
                Area = 2.22085 mm^2
                Peak Dynamic = 1.8176 W
                Subthreshold Leakage = 0.0700879 W
                Subthreshold Leakage with power gating = 0.0399235 W
                Gate Leakage = 0.00960014 W
                Runtime Dynamic = 0.431229 W

              FP Instruction Window:
                Area = 0.328065 mm^2
                Peak Dynamic = 0.497778 W
                Subthreshold Leakage = 0.00690732 W
                Subthreshold Leakage with power gating = 0.0039106 W
                Gate Leakage = 0.000979629 W
                Runtime Dynamic = 0.175293 W

              ROB:
                Area = 2.11292 mm^2
                Peak Dynamic = 1.54653 W
                Subthreshold Leakage = 0.0146861 W
                Subthreshold Leakage with power gating = 0.00819096 W
                Gate Leakage = 0.00143341 W
                Runtime Dynamic = 0.295867 W

          Integer ALUs (Count: 9 ):
            Area = 0.706306 mm^2
            Peak Dynamic = 0.167274 W
            Subthreshold Leakage = 0.242465 W
            Subthreshold Leakage with power gating = 0.109109 W
            Gate Leakage = 0.0331614 W
            Runtime Dynamic = 0.212497 W

          Floating Point Units (FPUs) (Count: 2 ):
            Area = 4.6585 mm^2
            Peak Dynamic = 0 W
            Subthreshold Leakage = 0.3998 W
            Subthreshold Leakage with power gating = 0.17991 W
            Gate Leakage = 0.0546797 W
            Runtime Dynamic = 0.211134 W

          Complex ALUs (Mul/Div) (Count: 1 ):
            Area = 0.235435 mm^2
            Peak Dynamic = 0 W
            Subthreshold Leakage = 0.0808216 W
            Subthreshold Leakage with power gating = 0.0363697 W
            Gate Leakage = 0.0110538 W
            Runtime Dynamic = 0.140756 W

          Results Broadcast Bus:
            Area Overhead = 0.0602106 mm^2
            Peak Dynamic = 0.107953 W
            Subthreshold Leakage = 0.0492971 W
            Subthreshold Leakage with power gating = 0.0221837 W
            Gate Leakage = 0.00674225 W
            Runtime Dynamic = 0.434949 W

    L2
    Area = 8.77928 mm^2
    Peak Dynamic = 0.0232447 W
    Subthreshold Leakage = 0.797449 W
    Subthreshold Leakage with power gating = 0.44906 W
    Gate Leakage = 0.0171755 W
    Runtime Dynamic = 0.00602613 W

*****************************************************************************************
Core:
      Area = 43.2304 mm^2
      Peak Dynamic = 8.76183 W
      Subthreshold Leakage = 3.16961 W
      Subthreshold Leakage with power gating = 1.56596 W
      Gate Leakage = 0.350703 W
      Runtime Dynamic = 0.422269 W

      Instruction Fetch Unit:
        Area = 8.7823 mm^2
        Peak Dynamic = 1.62783 W
        Subthreshold Leakage = 0.433903 W
        Subthreshold Leakage with power gating = 0.213688 W
        Gate Leakage = 0.0624842 W
        Runtime Dynamic = 8.84239e-08 W

          Instruction Cache:
            Area = 4.95184 mm^2
            Peak Dynamic = 0 W
            Subthreshold Leakage = 0.197988 W
            Subthreshold Leakage with power gating = 0.10139 W
            Gate Leakage = 0.035734 W
            Runtime Dynamic = 0 W

          Branch Target Buffer:
            Area = 0.789969 mm^2
            Peak Dynamic = 0.0759001 W
            Subthreshold Leakage = 0.0368499 W
            Subthreshold Leakage with power gating = 0.021557 W
            Gate Leakage = 0.00333823 W
            Runtime Dynamic = 0 W

          Branch Predictor:
            Area = 0.139613 mm^2
            Peak Dynamic = 0.0253502 W
            Subthreshold Leakage = 0.00802563 W
            Subthreshold Leakage with power gating = 0.00469502 W
            Gate Leakage = 0.000631381 W
            Runtime Dynamic = 0 W

              Global Predictor:
                Area = 0.0443718 mm^2
                Peak Dynamic = 0.0073166 W
                Subthreshold Leakage = 0.00305314 W
                Subthreshold Leakage with power gating = 0.00178441 W
                Gate Leakage = 0.000231968 W
                Runtime Dynamic = 0 W

              Local Predictor:
              L1_Local Predictor:
                Area = 0.0264164 mm^2
                Peak Dynamic = 0.00596243 W
                Subthreshold Leakage = 0.00154459 W
                Subthreshold Leakage with power gating = 0.000902955 W
                Gate Leakage = 0.00012879 W
                Runtime Dynamic = 0 W

              L2_Local Predictor:
                Area = 0.0135618 mm^2
                Peak Dynamic = 0.00304081 W
                Subthreshold Leakage = 0.000782464 W
                Subthreshold Leakage with power gating = 0.000456083 W
                Gate Leakage = 6.76797e-05 W
                Runtime Dynamic = 0 W

              Chooser:
                Area = 0.0443718 mm^2
                Peak Dynamic = 0.0073166 W
                Subthreshold Leakage = 0.00305314 W
                Subthreshold Leakage with power gating = 0.00178441 W
                Gate Leakage = 0.000231968 W
                Runtime Dynamic = 0 W

              RAS:
                Area = 0.0108915 mm^2
                Peak Dynamic = 0.00475453 W
                Subthreshold Leakage = 0.000374753 W
                Subthreshold Leakage with power gating = 0.000223242 W
                Gate Leakage = 3.86548e-05 W
                Runtime Dynamic = 0 W

          Instruction Buffer:
            Area = 0.0463126 mm^2
            Peak Dynamic = 0.719463 W
            Subthreshold Leakage = 0.000993296 W
            Subthreshold Leakage with power gating = 0.000525149 W
            Gate Leakage = 9.63964e-05 W
            Runtime Dynamic = 0 W

          Instruction Decoder:
            Area = 2.78698 mm^2
            Peak Dynamic = 0.807118 W
            Subthreshold Leakage = 0.178009 W
            Subthreshold Leakage with power gating = 0.080104 W
            Gate Leakage = 0.0185411 W
            Runtime Dynamic = 0 W

      Renaming Unit:
        Area = 0.55916 mm^2
        Peak Dynamic = 2.68412 W
        Subthreshold Leakage = 0.0341099 W
        Subthreshold Leakage with power gating = 0.0180116 W
        Gate Leakage = 0.00878169 W
        Runtime Dynamic = 8.84239e-08 W

          Int Front End RAT:
            Area = 0.224957 mm^2
            Peak Dynamic = 0.988468 W
            Subthreshold Leakage = 0.00388114 W
            Subthreshold Leakage with power gating = 0.00221225 W
            Gate Leakage = 0.000497349 W
            Runtime Dynamic = 0 W

          FP Front End RAT:
            Area = 0.168486 mm^2
            Peak Dynamic = 1.4632 W
            Subthreshold Leakage = 0.0175733 W
            Subthreshold Leakage with power gating = 0.0100168 W
            Gate Leakage = 0.00408109 W
            Runtime Dynamic = 0 W

          Free List:
            Area = 0.098125 mm^2
            Peak Dynamic = 0.0462146 W
            Subthreshold Leakage = 0.000618071 W
            Subthreshold Leakage with power gating = 0.000365734 W
            Gate Leakage = 6.01459e-05 W
            Runtime Dynamic = 0 W

      Load Store Unit:
        Area = 8.93636 mm^2
        Peak Dynamic = 0.494853 W
        Subthreshold Leakage = 0.243502 W
        Subthreshold Leakage with power gating = 0.125782 W
        Gate Leakage = 0.0309037 W
        Runtime Dynamic = 8.84239e-08 W

          Data Cache:
            Area = 6.93142 mm^2
            Peak Dynamic = 0.494853 W
            Subthreshold Leakage = 0.213789 W
            Subthreshold Leakage with power gating = 0.11029 W
            Gate Leakage = 0.0235117 W
            Runtime Dynamic = 0 W

          LoadQ:
            Area = 0.083675 mm^2
            Peak Dynamic = 0 W
            Subthreshold Leakage = 0.00378553 W
            Subthreshold Leakage with power gating = 0.00215775 W
            Gate Leakage = 0.000499133 W
            Runtime Dynamic = 0 W

          StoreQ:
            Area = 0.322068 mm^2
            Peak Dynamic = 0 W
            Subthreshold Leakage = 0.0138897 W
            Subthreshold Leakage with power gating = 0.00791712 W
            Gate Leakage = 0.00274976 W
            Runtime Dynamic = 0 W

      Memory Management Unit:
        Area = 0.216644 mm^2
        Peak Dynamic = 0.093117 W
        Subthreshold Leakage = 0.0221339 W
        Subthreshold Leakage with power gating = 0.0111719 W
        Gate Leakage = 0.00535145 W
        Runtime Dynamic = 8.84239e-08 W

          Itlb:
            Area = 0.0610812 mm^2
            Peak Dynamic = 0 W
            Subthreshold Leakage = 0.00383935 W
            Subthreshold Leakage with power gating = 0.00218843 W
            Gate Leakage = 0.000468934 W
            Runtime Dynamic = 0 W

          Dtlb:
            Area = 0.087971 mm^2
            Peak Dynamic = 0 W
            Subthreshold Leakage = 0.0062572 W
            Subthreshold Leakage with power gating = 0.0035666 W
            Gate Leakage = 0.000739408 W
            Runtime Dynamic = 0 W

      Execution Unit:
        Area = 11.56 mm^2
        Peak Dynamic = 3.86192 W
        Subthreshold Leakage = 0.883845 W
        Subthreshold Leakage with power gating = 0.408649 W
        Gate Leakage = 0.122793 W
        Runtime Dynamic = 0.422268 W

          Register Files:
            Area = 1.17013 mm^2
            Peak Dynamic = 0 W
            Subthreshold Leakage = 0.00774319 W
            Subthreshold Leakage with power gating = 0.00363493 W
            Gate Leakage = 0.000999271 W
            Runtime Dynamic = 0 W

              Integer RF:
                Area = 0.749997 mm^2
                Peak Dynamic = 0 W
                Subthreshold Leakage = 0.00484773 W
                Subthreshold Leakage with power gating = 0.00224312 W
                Gate Leakage = 0.000645553 W
                Runtime Dynamic = 0 W

              Floating Point RF:
                Area = 0.420137 mm^2
                Peak Dynamic = 0 W
                Subthreshold Leakage = 0.00289546 W
                Subthreshold Leakage with power gating = 0.0013918 W
                Gate Leakage = 0.000353718 W
                Runtime Dynamic = 0 W

          Instruction Scheduler:
            Area = 4.66183 mm^2
            Peak Dynamic = 3.86192 W
            Subthreshold Leakage = 0.0916813 W
            Subthreshold Leakage with power gating = 0.0520251 W
            Gate Leakage = 0.0120132 W
            Runtime Dynamic = 0 W

              Instruction Window:
                Area = 2.22085 mm^2
                Peak Dynamic = 1.8176 W
                Subthreshold Leakage = 0.0700879 W
                Subthreshold Leakage with power gating = 0.0399235 W
                Gate Leakage = 0.00960014 W
                Runtime Dynamic = 0 W

              FP Instruction Window:
                Area = 0.328065 mm^2
                Peak Dynamic = 0.497778 W
                Subthreshold Leakage = 0.00690732 W
                Subthreshold Leakage with power gating = 0.0039106 W
                Gate Leakage = 0.000979629 W
                Runtime Dynamic = 0 W

              ROB:
                Area = 2.11292 mm^2
                Peak Dynamic = 1.54653 W
                Subthreshold Leakage = 0.0146861 W
                Subthreshold Leakage with power gating = 0.00819096 W
                Gate Leakage = 0.00143341 W
                Runtime Dynamic = 0 W

          Integer ALUs (Count: 9 ):
            Area = 0.706306 mm^2
            Peak Dynamic = 0 W
            Subthreshold Leakage = 0.242465 W
            Subthreshold Leakage with power gating = 0.109109 W
            Gate Leakage = 0.0331614 W
            Runtime Dynamic = 0.070378 W

          Floating Point Units (FPUs) (Count: 2 ):
            Area = 4.6585 mm^2
            Peak Dynamic = 0 W
            Subthreshold Leakage = 0.3998 W
            Subthreshold Leakage with power gating = 0.17991 W
            Gate Leakage = 0.0546797 W
            Runtime Dynamic = 0.211134 W

          Complex ALUs (Mul/Div) (Count: 1 ):
            Area = 0.235435 mm^2
            Peak Dynamic = 0 W
            Subthreshold Leakage = 0.0808216 W
            Subthreshold Leakage with power gating = 0.0363697 W
            Gate Leakage = 0.0110538 W
            Runtime Dynamic = 0.140756 W

          Results Broadcast Bus:
            Area Overhead = 0.0602106 mm^2
            Peak Dynamic = 0 W
            Subthreshold Leakage = 0.0492971 W
            Subthreshold Leakage with power gating = 0.0221837 W
            Gate Leakage = 0.00674225 W
            Runtime Dynamic = 0 W

    L2
    Area = 8.77928 mm^2
    Peak Dynamic = 0 W
    Subthreshold Leakage = 0.797449 W
    Subthreshold Leakage with power gating = 0.44906 W
    Gate Leakage = 0.0171755 W
    Runtime Dynamic = 3.80955e-07 W

*****************************************************************************************
Core:
      Area = 43.2304 mm^2
      Peak Dynamic = 8.76183 W
      Subthreshold Leakage = 3.16961 W
      Subthreshold Leakage with power gating = 1.56596 W
      Gate Leakage = 0.350703 W
      Runtime Dynamic = 0.422269 W

      Instruction Fetch Unit:
        Area = 8.7823 mm^2
        Peak Dynamic = 1.62783 W
        Subthreshold Leakage = 0.433903 W
        Subthreshold Leakage with power gating = 0.213688 W
        Gate Leakage = 0.0624842 W
        Runtime Dynamic = 8.84239e-08 W

          Instruction Cache:
            Area = 4.95184 mm^2
            Peak Dynamic = 0 W
            Subthreshold Leakage = 0.197988 W
            Subthreshold Leakage with power gating = 0.10139 W
            Gate Leakage = 0.035734 W
            Runtime Dynamic = 0 W

          Branch Target Buffer:
            Area = 0.789969 mm^2
            Peak Dynamic = 0.0759001 W
            Subthreshold Leakage = 0.0368499 W
            Subthreshold Leakage with power gating = 0.021557 W
            Gate Leakage = 0.00333823 W
            Runtime Dynamic = 0 W

          Branch Predictor:
            Area = 0.139613 mm^2
            Peak Dynamic = 0.0253502 W
            Subthreshold Leakage = 0.00802563 W
            Subthreshold Leakage with power gating = 0.00469502 W
            Gate Leakage = 0.000631381 W
            Runtime Dynamic = 0 W

              Global Predictor:
                Area = 0.0443718 mm^2
                Peak Dynamic = 0.0073166 W
                Subthreshold Leakage = 0.00305314 W
                Subthreshold Leakage with power gating = 0.00178441 W
                Gate Leakage = 0.000231968 W
                Runtime Dynamic = 0 W

              Local Predictor:
              L1_Local Predictor:
                Area = 0.0264164 mm^2
                Peak Dynamic = 0.00596243 W
                Subthreshold Leakage = 0.00154459 W
                Subthreshold Leakage with power gating = 0.000902955 W
                Gate Leakage = 0.00012879 W
                Runtime Dynamic = 0 W

              L2_Local Predictor:
                Area = 0.0135618 mm^2
                Peak Dynamic = 0.00304081 W
                Subthreshold Leakage = 0.000782464 W
                Subthreshold Leakage with power gating = 0.000456083 W
                Gate Leakage = 6.76797e-05 W
                Runtime Dynamic = 0 W

              Chooser:
                Area = 0.0443718 mm^2
                Peak Dynamic = 0.0073166 W
                Subthreshold Leakage = 0.00305314 W
                Subthreshold Leakage with power gating = 0.00178441 W
                Gate Leakage = 0.000231968 W
                Runtime Dynamic = 0 W

              RAS:
                Area = 0.0108915 mm^2
                Peak Dynamic = 0.00475453 W
                Subthreshold Leakage = 0.000374753 W
                Subthreshold Leakage with power gating = 0.000223242 W
                Gate Leakage = 3.86548e-05 W
                Runtime Dynamic = 0 W

          Instruction Buffer:
            Area = 0.0463126 mm^2
            Peak Dynamic = 0.719463 W
            Subthreshold Leakage = 0.000993296 W
            Subthreshold Leakage with power gating = 0.000525149 W
            Gate Leakage = 9.63964e-05 W
            Runtime Dynamic = 0 W

          Instruction Decoder:
            Area = 2.78698 mm^2
            Peak Dynamic = 0.807118 W
            Subthreshold Leakage = 0.178009 W
            Subthreshold Leakage with power gating = 0.080104 W
            Gate Leakage = 0.0185411 W
            Runtime Dynamic = 0 W

      Renaming Unit:
        Area = 0.55916 mm^2
        Peak Dynamic = 2.68412 W
        Subthreshold Leakage = 0.0341099 W
        Subthreshold Leakage with power gating = 0.0180116 W
        Gate Leakage = 0.00878169 W
        Runtime Dynamic = 8.84239e-08 W

          Int Front End RAT:
            Area = 0.224957 mm^2
            Peak Dynamic = 0.988468 W
            Subthreshold Leakage = 0.00388114 W
            Subthreshold Leakage with power gating = 0.00221225 W
            Gate Leakage = 0.000497349 W
            Runtime Dynamic = 0 W

          FP Front End RAT:
            Area = 0.168486 mm^2
            Peak Dynamic = 1.4632 W
            Subthreshold Leakage = 0.0175733 W
            Subthreshold Leakage with power gating = 0.0100168 W
            Gate Leakage = 0.00408109 W
            Runtime Dynamic = 0 W

          Free List:
            Area = 0.098125 mm^2
            Peak Dynamic = 0.0462146 W
            Subthreshold Leakage = 0.000618071 W
            Subthreshold Leakage with power gating = 0.000365734 W
            Gate Leakage = 6.01459e-05 W
            Runtime Dynamic = 0 W

      Load Store Unit:
        Area = 8.93636 mm^2
        Peak Dynamic = 0.494853 W
        Subthreshold Leakage = 0.243502 W
        Subthreshold Leakage with power gating = 0.125782 W
        Gate Leakage = 0.0309037 W
        Runtime Dynamic = 8.84239e-08 W

          Data Cache:
            Area = 6.93142 mm^2
            Peak Dynamic = 0.494853 W
            Subthreshold Leakage = 0.213789 W
            Subthreshold Leakage with power gating = 0.11029 W
            Gate Leakage = 0.0235117 W
            Runtime Dynamic = 0 W

          LoadQ:
            Area = 0.083675 mm^2
            Peak Dynamic = 0 W
            Subthreshold Leakage = 0.00378553 W
            Subthreshold Leakage with power gating = 0.00215775 W
            Gate Leakage = 0.000499133 W
            Runtime Dynamic = 0 W

          StoreQ:
            Area = 0.322068 mm^2
            Peak Dynamic = 0 W
            Subthreshold Leakage = 0.0138897 W
            Subthreshold Leakage with power gating = 0.00791712 W
            Gate Leakage = 0.00274976 W
            Runtime Dynamic = 0 W

      Memory Management Unit:
        Area = 0.216644 mm^2
        Peak Dynamic = 0.093117 W
        Subthreshold Leakage = 0.0221339 W
        Subthreshold Leakage with power gating = 0.0111719 W
        Gate Leakage = 0.00535145 W
        Runtime Dynamic = 8.84239e-08 W

          Itlb:
            Area = 0.0610812 mm^2
            Peak Dynamic = 0 W
            Subthreshold Leakage = 0.00383935 W
            Subthreshold Leakage with power gating = 0.00218843 W
            Gate Leakage = 0.000468934 W
            Runtime Dynamic = 0 W

          Dtlb:
            Area = 0.087971 mm^2
            Peak Dynamic = 0 W
            Subthreshold Leakage = 0.0062572 W
            Subthreshold Leakage with power gating = 0.0035666 W
            Gate Leakage = 0.000739408 W
            Runtime Dynamic = 0 W

      Execution Unit:
        Area = 11.56 mm^2
        Peak Dynamic = 3.86192 W
        Subthreshold Leakage = 0.883845 W
        Subthreshold Leakage with power gating = 0.408649 W
        Gate Leakage = 0.122793 W
        Runtime Dynamic = 0.422268 W

          Register Files:
            Area = 1.17013 mm^2
            Peak Dynamic = 0 W
            Subthreshold Leakage = 0.00774319 W
            Subthreshold Leakage with power gating = 0.00363493 W
            Gate Leakage = 0.000999271 W
            Runtime Dynamic = 0 W

              Integer RF:
                Area = 0.749997 mm^2
                Peak Dynamic = 0 W
                Subthreshold Leakage = 0.00484773 W
                Subthreshold Leakage with power gating = 0.00224312 W
                Gate Leakage = 0.000645553 W
                Runtime Dynamic = 0 W

              Floating Point RF:
                Area = 0.420137 mm^2
                Peak Dynamic = 0 W
                Subthreshold Leakage = 0.00289546 W
                Subthreshold Leakage with power gating = 0.0013918 W
                Gate Leakage = 0.000353718 W
                Runtime Dynamic = 0 W

          Instruction Scheduler:
            Area = 4.66183 mm^2
            Peak Dynamic = 3.86192 W
            Subthreshold Leakage = 0.0916813 W
            Subthreshold Leakage with power gating = 0.0520251 W
            Gate Leakage = 0.0120132 W
            Runtime Dynamic = 0 W

              Instruction Window:
                Area = 2.22085 mm^2
                Peak Dynamic = 1.8176 W
                Subthreshold Leakage = 0.0700879 W
                Subthreshold Leakage with power gating = 0.0399235 W
                Gate Leakage = 0.00960014 W
                Runtime Dynamic = 0 W

              FP Instruction Window:
                Area = 0.328065 mm^2
                Peak Dynamic = 0.497778 W
                Subthreshold Leakage = 0.00690732 W
                Subthreshold Leakage with power gating = 0.0039106 W
                Gate Leakage = 0.000979629 W
                Runtime Dynamic = 0 W

              ROB:
                Area = 2.11292 mm^2
                Peak Dynamic = 1.54653 W
                Subthreshold Leakage = 0.0146861 W
                Subthreshold Leakage with power gating = 0.00819096 W
                Gate Leakage = 0.00143341 W
                Runtime Dynamic = 0 W

          Integer ALUs (Count: 9 ):
            Area = 0.706306 mm^2
            Peak Dynamic = 0 W
            Subthreshold Leakage = 0.242465 W
            Subthreshold Leakage with power gating = 0.109109 W
            Gate Leakage = 0.0331614 W
            Runtime Dynamic = 0.070378 W

          Floating Point Units (FPUs) (Count: 2 ):
            Area = 4.6585 mm^2
            Peak Dynamic = 0 W
            Subthreshold Leakage = 0.3998 W
            Subthreshold Leakage with power gating = 0.17991 W
            Gate Leakage = 0.0546797 W
            Runtime Dynamic = 0.211134 W

          Complex ALUs (Mul/Div) (Count: 1 ):
            Area = 0.235435 mm^2
            Peak Dynamic = 0 W
            Subthreshold Leakage = 0.0808216 W
            Subthreshold Leakage with power gating = 0.0363697 W
            Gate Leakage = 0.0110538 W
            Runtime Dynamic = 0.140756 W

          Results Broadcast Bus:
            Area Overhead = 0.0602106 mm^2
            Peak Dynamic = 0 W
            Subthreshold Leakage = 0.0492971 W
            Subthreshold Leakage with power gating = 0.0221837 W
            Gate Leakage = 0.00674225 W
            Runtime Dynamic = 0 W

    L2
    Area = 8.77928 mm^2
    Peak Dynamic = 0 W
    Subthreshold Leakage = 0.797449 W
    Subthreshold Leakage with power gating = 0.44906 W
    Gate Leakage = 0.0171755 W
    Runtime Dynamic = 3.80955e-07 W

*****************************************************************************************
Core:
      Area = 43.2304 mm^2
      Peak Dynamic = 8.76183 W
      Subthreshold Leakage = 3.16961 W
      Subthreshold Leakage with power gating = 1.56596 W
      Gate Leakage = 0.350703 W
      Runtime Dynamic = 0.422269 W

      Instruction Fetch Unit:
        Area = 8.7823 mm^2
        Peak Dynamic = 1.62783 W
        Subthreshold Leakage = 0.433903 W
        Subthreshold Leakage with power gating = 0.213688 W
        Gate Leakage = 0.0624842 W
        Runtime Dynamic = 8.84239e-08 W

          Instruction Cache:
            Area = 4.95184 mm^2
            Peak Dynamic = 0 W
            Subthreshold Leakage = 0.197988 W
            Subthreshold Leakage with power gating = 0.10139 W
            Gate Leakage = 0.035734 W
            Runtime Dynamic = 0 W

          Branch Target Buffer:
            Area = 0.789969 mm^2
            Peak Dynamic = 0.0759001 W
            Subthreshold Leakage = 0.0368499 W
            Subthreshold Leakage with power gating = 0.021557 W
            Gate Leakage = 0.00333823 W
            Runtime Dynamic = 0 W

          Branch Predictor:
            Area = 0.139613 mm^2
            Peak Dynamic = 0.0253502 W
            Subthreshold Leakage = 0.00802563 W
            Subthreshold Leakage with power gating = 0.00469502 W
            Gate Leakage = 0.000631381 W
            Runtime Dynamic = 0 W

              Global Predictor:
                Area = 0.0443718 mm^2
                Peak Dynamic = 0.0073166 W
                Subthreshold Leakage = 0.00305314 W
                Subthreshold Leakage with power gating = 0.00178441 W
                Gate Leakage = 0.000231968 W
                Runtime Dynamic = 0 W

              Local Predictor:
              L1_Local Predictor:
                Area = 0.0264164 mm^2
                Peak Dynamic = 0.00596243 W
                Subthreshold Leakage = 0.00154459 W
                Subthreshold Leakage with power gating = 0.000902955 W
                Gate Leakage = 0.00012879 W
                Runtime Dynamic = 0 W

              L2_Local Predictor:
                Area = 0.0135618 mm^2
                Peak Dynamic = 0.00304081 W
                Subthreshold Leakage = 0.000782464 W
                Subthreshold Leakage with power gating = 0.000456083 W
                Gate Leakage = 6.76797e-05 W
                Runtime Dynamic = 0 W

              Chooser:
                Area = 0.0443718 mm^2
                Peak Dynamic = 0.0073166 W
                Subthreshold Leakage = 0.00305314 W
                Subthreshold Leakage with power gating = 0.00178441 W
                Gate Leakage = 0.000231968 W
                Runtime Dynamic = 0 W

              RAS:
                Area = 0.0108915 mm^2
                Peak Dynamic = 0.00475453 W
                Subthreshold Leakage = 0.000374753 W
                Subthreshold Leakage with power gating = 0.000223242 W
                Gate Leakage = 3.86548e-05 W
                Runtime Dynamic = 0 W

          Instruction Buffer:
            Area = 0.0463126 mm^2
            Peak Dynamic = 0.719463 W
            Subthreshold Leakage = 0.000993296 W
            Subthreshold Leakage with power gating = 0.000525149 W
            Gate Leakage = 9.63964e-05 W
            Runtime Dynamic = 0 W

          Instruction Decoder:
            Area = 2.78698 mm^2
            Peak Dynamic = 0.807118 W
            Subthreshold Leakage = 0.178009 W
            Subthreshold Leakage with power gating = 0.080104 W
            Gate Leakage = 0.0185411 W
            Runtime Dynamic = 0 W

      Renaming Unit:
        Area = 0.55916 mm^2
        Peak Dynamic = 2.68412 W
        Subthreshold Leakage = 0.0341099 W
        Subthreshold Leakage with power gating = 0.0180116 W
        Gate Leakage = 0.00878169 W
        Runtime Dynamic = 8.84239e-08 W

          Int Front End RAT:
            Area = 0.224957 mm^2
            Peak Dynamic = 0.988468 W
            Subthreshold Leakage = 0.00388114 W
            Subthreshold Leakage with power gating = 0.00221225 W
            Gate Leakage = 0.000497349 W
            Runtime Dynamic = 0 W

          FP Front End RAT:
            Area = 0.168486 mm^2
            Peak Dynamic = 1.4632 W
            Subthreshold Leakage = 0.0175733 W
            Subthreshold Leakage with power gating = 0.0100168 W
            Gate Leakage = 0.00408109 W
            Runtime Dynamic = 0 W

          Free List:
            Area = 0.098125 mm^2
            Peak Dynamic = 0.0462146 W
            Subthreshold Leakage = 0.000618071 W
            Subthreshold Leakage with power gating = 0.000365734 W
            Gate Leakage = 6.01459e-05 W
            Runtime Dynamic = 0 W

      Load Store Unit:
        Area = 8.93636 mm^2
        Peak Dynamic = 0.494853 W
        Subthreshold Leakage = 0.243502 W
        Subthreshold Leakage with power gating = 0.125782 W
        Gate Leakage = 0.0309037 W
        Runtime Dynamic = 8.84239e-08 W

          Data Cache:
            Area = 6.93142 mm^2
            Peak Dynamic = 0.494853 W
            Subthreshold Leakage = 0.213789 W
            Subthreshold Leakage with power gating = 0.11029 W
            Gate Leakage = 0.0235117 W
            Runtime Dynamic = 0 W

          LoadQ:
            Area = 0.083675 mm^2
            Peak Dynamic = 0 W
            Subthreshold Leakage = 0.00378553 W
            Subthreshold Leakage with power gating = 0.00215775 W
            Gate Leakage = 0.000499133 W
            Runtime Dynamic = 0 W

          StoreQ:
            Area = 0.322068 mm^2
            Peak Dynamic = 0 W
            Subthreshold Leakage = 0.0138897 W
            Subthreshold Leakage with power gating = 0.00791712 W
            Gate Leakage = 0.00274976 W
            Runtime Dynamic = 0 W

      Memory Management Unit:
        Area = 0.216644 mm^2
        Peak Dynamic = 0.093117 W
        Subthreshold Leakage = 0.0221339 W
        Subthreshold Leakage with power gating = 0.0111719 W
        Gate Leakage = 0.00535145 W
        Runtime Dynamic = 8.84239e-08 W

          Itlb:
            Area = 0.0610812 mm^2
            Peak Dynamic = 0 W
            Subthreshold Leakage = 0.00383935 W
            Subthreshold Leakage with power gating = 0.00218843 W
            Gate Leakage = 0.000468934 W
            Runtime Dynamic = 0 W

          Dtlb:
            Area = 0.087971 mm^2
            Peak Dynamic = 0 W
            Subthreshold Leakage = 0.0062572 W
            Subthreshold Leakage with power gating = 0.0035666 W
            Gate Leakage = 0.000739408 W
            Runtime Dynamic = 0 W

      Execution Unit:
        Area = 11.56 mm^2
        Peak Dynamic = 3.86192 W
        Subthreshold Leakage = 0.883845 W
        Subthreshold Leakage with power gating = 0.408649 W
        Gate Leakage = 0.122793 W
        Runtime Dynamic = 0.422268 W

          Register Files:
            Area = 1.17013 mm^2
            Peak Dynamic = 0 W
            Subthreshold Leakage = 0.00774319 W
            Subthreshold Leakage with power gating = 0.00363493 W
            Gate Leakage = 0.000999271 W
            Runtime Dynamic = 0 W

              Integer RF:
                Area = 0.749997 mm^2
                Peak Dynamic = 0 W
                Subthreshold Leakage = 0.00484773 W
                Subthreshold Leakage with power gating = 0.00224312 W
                Gate Leakage = 0.000645553 W
                Runtime Dynamic = 0 W

              Floating Point RF:
                Area = 0.420137 mm^2
                Peak Dynamic = 0 W
                Subthreshold Leakage = 0.00289546 W
                Subthreshold Leakage with power gating = 0.0013918 W
                Gate Leakage = 0.000353718 W
                Runtime Dynamic = 0 W

          Instruction Scheduler:
            Area = 4.66183 mm^2
            Peak Dynamic = 3.86192 W
            Subthreshold Leakage = 0.0916813 W
            Subthreshold Leakage with power gating = 0.0520251 W
            Gate Leakage = 0.0120132 W
            Runtime Dynamic = 0 W

              Instruction Window:
                Area = 2.22085 mm^2
                Peak Dynamic = 1.8176 W
                Subthreshold Leakage = 0.0700879 W
                Subthreshold Leakage with power gating = 0.0399235 W
                Gate Leakage = 0.00960014 W
                Runtime Dynamic = 0 W

              FP Instruction Window:
                Area = 0.328065 mm^2
                Peak Dynamic = 0.497778 W
                Subthreshold Leakage = 0.00690732 W
                Subthreshold Leakage with power gating = 0.0039106 W
                Gate Leakage = 0.000979629 W
                Runtime Dynamic = 0 W

              ROB:
                Area = 2.11292 mm^2
                Peak Dynamic = 1.54653 W
                Subthreshold Leakage = 0.0146861 W
                Subthreshold Leakage with power gating = 0.00819096 W
                Gate Leakage = 0.00143341 W
                Runtime Dynamic = 0 W

          Integer ALUs (Count: 9 ):
            Area = 0.706306 mm^2
            Peak Dynamic = 0 W
            Subthreshold Leakage = 0.242465 W
            Subthreshold Leakage with power gating = 0.109109 W
            Gate Leakage = 0.0331614 W
            Runtime Dynamic = 0.070378 W

          Floating Point Units (FPUs) (Count: 2 ):
            Area = 4.6585 mm^2
            Peak Dynamic = 0 W
            Subthreshold Leakage = 0.3998 W
            Subthreshold Leakage with power gating = 0.17991 W
            Gate Leakage = 0.0546797 W
            Runtime Dynamic = 0.211134 W

          Complex ALUs (Mul/Div) (Count: 1 ):
            Area = 0.235435 mm^2
            Peak Dynamic = 0 W
            Subthreshold Leakage = 0.0808216 W
            Subthreshold Leakage with power gating = 0.0363697 W
            Gate Leakage = 0.0110538 W
            Runtime Dynamic = 0.140756 W

          Results Broadcast Bus:
            Area Overhead = 0.0602106 mm^2
            Peak Dynamic = 0 W
            Subthreshold Leakage = 0.0492971 W
            Subthreshold Leakage with power gating = 0.0221837 W
            Gate Leakage = 0.00674225 W
            Runtime Dynamic = 0 W

    L2
    Area = 8.77928 mm^2
    Peak Dynamic = 0 W
    Subthreshold Leakage = 0.797449 W
    Subthreshold Leakage with power gating = 0.44906 W
    Gate Leakage = 0.0171755 W
    Runtime Dynamic = 3.80955e-07 W

*****************************************************************************************
Core:
      Area = 43.2304 mm^2
      Peak Dynamic = 8.76183 W
      Subthreshold Leakage = 3.16961 W
      Subthreshold Leakage with power gating = 1.56596 W
      Gate Leakage = 0.350703 W
      Runtime Dynamic = 0.422269 W

      Instruction Fetch Unit:
        Area = 8.7823 mm^2
        Peak Dynamic = 1.62783 W
        Subthreshold Leakage = 0.433903 W
        Subthreshold Leakage with power gating = 0.213688 W
        Gate Leakage = 0.0624842 W
        Runtime Dynamic = 8.84239e-08 W

          Instruction Cache:
            Area = 4.95184 mm^2
            Peak Dynamic = 0 W
            Subthreshold Leakage = 0.197988 W
            Subthreshold Leakage with power gating = 0.10139 W
            Gate Leakage = 0.035734 W
            Runtime Dynamic = 0 W

          Branch Target Buffer:
            Area = 0.789969 mm^2
            Peak Dynamic = 0.0759001 W
            Subthreshold Leakage = 0.0368499 W
            Subthreshold Leakage with power gating = 0.021557 W
            Gate Leakage = 0.00333823 W
            Runtime Dynamic = 0 W

          Branch Predictor:
            Area = 0.139613 mm^2
            Peak Dynamic = 0.0253502 W
            Subthreshold Leakage = 0.00802563 W
            Subthreshold Leakage with power gating = 0.00469502 W
            Gate Leakage = 0.000631381 W
            Runtime Dynamic = 0 W

              Global Predictor:
                Area = 0.0443718 mm^2
                Peak Dynamic = 0.0073166 W
                Subthreshold Leakage = 0.00305314 W
                Subthreshold Leakage with power gating = 0.00178441 W
                Gate Leakage = 0.000231968 W
                Runtime Dynamic = 0 W

              Local Predictor:
              L1_Local Predictor:
                Area = 0.0264164 mm^2
                Peak Dynamic = 0.00596243 W
                Subthreshold Leakage = 0.00154459 W
                Subthreshold Leakage with power gating = 0.000902955 W
                Gate Leakage = 0.00012879 W
                Runtime Dynamic = 0 W

              L2_Local Predictor:
                Area = 0.0135618 mm^2
                Peak Dynamic = 0.00304081 W
                Subthreshold Leakage = 0.000782464 W
                Subthreshold Leakage with power gating = 0.000456083 W
                Gate Leakage = 6.76797e-05 W
                Runtime Dynamic = 0 W

              Chooser:
                Area = 0.0443718 mm^2
                Peak Dynamic = 0.0073166 W
                Subthreshold Leakage = 0.00305314 W
                Subthreshold Leakage with power gating = 0.00178441 W
                Gate Leakage = 0.000231968 W
                Runtime Dynamic = 0 W

              RAS:
                Area = 0.0108915 mm^2
                Peak Dynamic = 0.00475453 W
                Subthreshold Leakage = 0.000374753 W
                Subthreshold Leakage with power gating = 0.000223242 W
                Gate Leakage = 3.86548e-05 W
                Runtime Dynamic = 0 W

          Instruction Buffer:
            Area = 0.0463126 mm^2
            Peak Dynamic = 0.719463 W
            Subthreshold Leakage = 0.000993296 W
            Subthreshold Leakage with power gating = 0.000525149 W
            Gate Leakage = 9.63964e-05 W
            Runtime Dynamic = 0 W

          Instruction Decoder:
            Area = 2.78698 mm^2
            Peak Dynamic = 0.807118 W
            Subthreshold Leakage = 0.178009 W
            Subthreshold Leakage with power gating = 0.080104 W
            Gate Leakage = 0.0185411 W
            Runtime Dynamic = 0 W

      Renaming Unit:
        Area = 0.55916 mm^2
        Peak Dynamic = 2.68412 W
        Subthreshold Leakage = 0.0341099 W
        Subthreshold Leakage with power gating = 0.0180116 W
        Gate Leakage = 0.00878169 W
        Runtime Dynamic = 8.84239e-08 W

          Int Front End RAT:
            Area = 0.224957 mm^2
            Peak Dynamic = 0.988468 W
            Subthreshold Leakage = 0.00388114 W
            Subthreshold Leakage with power gating = 0.00221225 W
            Gate Leakage = 0.000497349 W
            Runtime Dynamic = 0 W

          FP Front End RAT:
            Area = 0.168486 mm^2
            Peak Dynamic = 1.4632 W
            Subthreshold Leakage = 0.0175733 W
            Subthreshold Leakage with power gating = 0.0100168 W
            Gate Leakage = 0.00408109 W
            Runtime Dynamic = 0 W

          Free List:
            Area = 0.098125 mm^2
            Peak Dynamic = 0.0462146 W
            Subthreshold Leakage = 0.000618071 W
            Subthreshold Leakage with power gating = 0.000365734 W
            Gate Leakage = 6.01459e-05 W
            Runtime Dynamic = 0 W

      Load Store Unit:
        Area = 8.93636 mm^2
        Peak Dynamic = 0.494853 W
        Subthreshold Leakage = 0.243502 W
        Subthreshold Leakage with power gating = 0.125782 W
        Gate Leakage = 0.0309037 W
        Runtime Dynamic = 8.84239e-08 W

          Data Cache:
            Area = 6.93142 mm^2
            Peak Dynamic = 0.494853 W
            Subthreshold Leakage = 0.213789 W
            Subthreshold Leakage with power gating = 0.11029 W
            Gate Leakage = 0.0235117 W
            Runtime Dynamic = 0 W

          LoadQ:
            Area = 0.083675 mm^2
            Peak Dynamic = 0 W
            Subthreshold Leakage = 0.00378553 W
            Subthreshold Leakage with power gating = 0.00215775 W
            Gate Leakage = 0.000499133 W
            Runtime Dynamic = 0 W

          StoreQ:
            Area = 0.322068 mm^2
            Peak Dynamic = 0 W
            Subthreshold Leakage = 0.0138897 W
            Subthreshold Leakage with power gating = 0.00791712 W
            Gate Leakage = 0.00274976 W
            Runtime Dynamic = 0 W

      Memory Management Unit:
        Area = 0.216644 mm^2
        Peak Dynamic = 0.093117 W
        Subthreshold Leakage = 0.0221339 W
        Subthreshold Leakage with power gating = 0.0111719 W
        Gate Leakage = 0.00535145 W
        Runtime Dynamic = 8.84239e-08 W

          Itlb:
            Area = 0.0610812 mm^2
            Peak Dynamic = 0 W
            Subthreshold Leakage = 0.00383935 W
            Subthreshold Leakage with power gating = 0.00218843 W
            Gate Leakage = 0.000468934 W
            Runtime Dynamic = 0 W

          Dtlb:
            Area = 0.087971 mm^2
            Peak Dynamic = 0 W
            Subthreshold Leakage = 0.0062572 W
            Subthreshold Leakage with power gating = 0.0035666 W
            Gate Leakage = 0.000739408 W
            Runtime Dynamic = 0 W

      Execution Unit:
        Area = 11.56 mm^2
        Peak Dynamic = 3.86192 W
        Subthreshold Leakage = 0.883845 W
        Subthreshold Leakage with power gating = 0.408649 W
        Gate Leakage = 0.122793 W
        Runtime Dynamic = 0.422268 W

          Register Files:
            Area = 1.17013 mm^2
            Peak Dynamic = 0 W
            Subthreshold Leakage = 0.00774319 W
            Subthreshold Leakage with power gating = 0.00363493 W
            Gate Leakage = 0.000999271 W
            Runtime Dynamic = 0 W

              Integer RF:
                Area = 0.749997 mm^2
                Peak Dynamic = 0 W
                Subthreshold Leakage = 0.00484773 W
                Subthreshold Leakage with power gating = 0.00224312 W
                Gate Leakage = 0.000645553 W
                Runtime Dynamic = 0 W

              Floating Point RF:
                Area = 0.420137 mm^2
                Peak Dynamic = 0 W
                Subthreshold Leakage = 0.00289546 W
                Subthreshold Leakage with power gating = 0.0013918 W
                Gate Leakage = 0.000353718 W
                Runtime Dynamic = 0 W

          Instruction Scheduler:
            Area = 4.66183 mm^2
            Peak Dynamic = 3.86192 W
            Subthreshold Leakage = 0.0916813 W
            Subthreshold Leakage with power gating = 0.0520251 W
            Gate Leakage = 0.0120132 W
            Runtime Dynamic = 0 W

              Instruction Window:
                Area = 2.22085 mm^2
                Peak Dynamic = 1.8176 W
                Subthreshold Leakage = 0.0700879 W
                Subthreshold Leakage with power gating = 0.0399235 W
                Gate Leakage = 0.00960014 W
                Runtime Dynamic = 0 W

              FP Instruction Window:
                Area = 0.328065 mm^2
                Peak Dynamic = 0.497778 W
                Subthreshold Leakage = 0.00690732 W
                Subthreshold Leakage with power gating = 0.0039106 W
                Gate Leakage = 0.000979629 W
                Runtime Dynamic = 0 W

              ROB:
                Area = 2.11292 mm^2
                Peak Dynamic = 1.54653 W
                Subthreshold Leakage = 0.0146861 W
                Subthreshold Leakage with power gating = 0.00819096 W
                Gate Leakage = 0.00143341 W
                Runtime Dynamic = 0 W

          Integer ALUs (Count: 9 ):
            Area = 0.706306 mm^2
            Peak Dynamic = 0 W
            Subthreshold Leakage = 0.242465 W
            Subthreshold Leakage with power gating = 0.109109 W
            Gate Leakage = 0.0331614 W
            Runtime Dynamic = 0.070378 W

          Floating Point Units (FPUs) (Count: 2 ):
            Area = 4.6585 mm^2
            Peak Dynamic = 0 W
            Subthreshold Leakage = 0.3998 W
            Subthreshold Leakage with power gating = 0.17991 W
            Gate Leakage = 0.0546797 W
            Runtime Dynamic = 0.211134 W

          Complex ALUs (Mul/Div) (Count: 1 ):
            Area = 0.235435 mm^2
            Peak Dynamic = 0 W
            Subthreshold Leakage = 0.0808216 W
            Subthreshold Leakage with power gating = 0.0363697 W
            Gate Leakage = 0.0110538 W
            Runtime Dynamic = 0.140756 W

          Results Broadcast Bus:
            Area Overhead = 0.0602106 mm^2
            Peak Dynamic = 0 W
            Subthreshold Leakage = 0.0492971 W
            Subthreshold Leakage with power gating = 0.0221837 W
            Gate Leakage = 0.00674225 W
            Runtime Dynamic = 0 W

    L2
    Area = 8.77928 mm^2
    Peak Dynamic = 0 W
    Subthreshold Leakage = 0.797449 W
    Subthreshold Leakage with power gating = 0.44906 W
    Gate Leakage = 0.0171755 W
    Runtime Dynamic = 3.80955e-07 W

*****************************************************************************************
Core:
      Area = 43.2304 mm^2
      Peak Dynamic = 8.76183 W
      Subthreshold Leakage = 3.16961 W
      Subthreshold Leakage with power gating = 1.56596 W
      Gate Leakage = 0.350703 W
      Runtime Dynamic = 0.422269 W

      Instruction Fetch Unit:
        Area = 8.7823 mm^2
        Peak Dynamic = 1.62783 W
        Subthreshold Leakage = 0.433903 W
        Subthreshold Leakage with power gating = 0.213688 W
        Gate Leakage = 0.0624842 W
        Runtime Dynamic = 8.84239e-08 W

          Instruction Cache:
            Area = 4.95184 mm^2
            Peak Dynamic = 0 W
            Subthreshold Leakage = 0.197988 W
            Subthreshold Leakage with power gating = 0.10139 W
            Gate Leakage = 0.035734 W
            Runtime Dynamic = 0 W

          Branch Target Buffer:
            Area = 0.789969 mm^2
            Peak Dynamic = 0.0759001 W
            Subthreshold Leakage = 0.0368499 W
            Subthreshold Leakage with power gating = 0.021557 W
            Gate Leakage = 0.00333823 W
            Runtime Dynamic = 0 W

          Branch Predictor:
            Area = 0.139613 mm^2
            Peak Dynamic = 0.0253502 W
            Subthreshold Leakage = 0.00802563 W
            Subthreshold Leakage with power gating = 0.00469502 W
            Gate Leakage = 0.000631381 W
            Runtime Dynamic = 0 W

              Global Predictor:
                Area = 0.0443718 mm^2
                Peak Dynamic = 0.0073166 W
                Subthreshold Leakage = 0.00305314 W
                Subthreshold Leakage with power gating = 0.00178441 W
                Gate Leakage = 0.000231968 W
                Runtime Dynamic = 0 W

              Local Predictor:
              L1_Local Predictor:
                Area = 0.0264164 mm^2
                Peak Dynamic = 0.00596243 W
                Subthreshold Leakage = 0.00154459 W
                Subthreshold Leakage with power gating = 0.000902955 W
                Gate Leakage = 0.00012879 W
                Runtime Dynamic = 0 W

              L2_Local Predictor:
                Area = 0.0135618 mm^2
                Peak Dynamic = 0.00304081 W
                Subthreshold Leakage = 0.000782464 W
                Subthreshold Leakage with power gating = 0.000456083 W
                Gate Leakage = 6.76797e-05 W
                Runtime Dynamic = 0 W

              Chooser:
                Area = 0.0443718 mm^2
                Peak Dynamic = 0.0073166 W
                Subthreshold Leakage = 0.00305314 W
                Subthreshold Leakage with power gating = 0.00178441 W
                Gate Leakage = 0.000231968 W
                Runtime Dynamic = 0 W

              RAS:
                Area = 0.0108915 mm^2
                Peak Dynamic = 0.00475453 W
                Subthreshold Leakage = 0.000374753 W
                Subthreshold Leakage with power gating = 0.000223242 W
                Gate Leakage = 3.86548e-05 W
                Runtime Dynamic = 0 W

          Instruction Buffer:
            Area = 0.0463126 mm^2
            Peak Dynamic = 0.719463 W
            Subthreshold Leakage = 0.000993296 W
            Subthreshold Leakage with power gating = 0.000525149 W
            Gate Leakage = 9.63964e-05 W
            Runtime Dynamic = 0 W

          Instruction Decoder:
            Area = 2.78698 mm^2
            Peak Dynamic = 0.807118 W
            Subthreshold Leakage = 0.178009 W
            Subthreshold Leakage with power gating = 0.080104 W
            Gate Leakage = 0.0185411 W
            Runtime Dynamic = 0 W

      Renaming Unit:
        Area = 0.55916 mm^2
        Peak Dynamic = 2.68412 W
        Subthreshold Leakage = 0.0341099 W
        Subthreshold Leakage with power gating = 0.0180116 W
        Gate Leakage = 0.00878169 W
        Runtime Dynamic = 8.84239e-08 W

          Int Front End RAT:
            Area = 0.224957 mm^2
            Peak Dynamic = 0.988468 W
            Subthreshold Leakage = 0.00388114 W
            Subthreshold Leakage with power gating = 0.00221225 W
            Gate Leakage = 0.000497349 W
            Runtime Dynamic = 0 W

          FP Front End RAT:
            Area = 0.168486 mm^2
            Peak Dynamic = 1.4632 W
            Subthreshold Leakage = 0.0175733 W
            Subthreshold Leakage with power gating = 0.0100168 W
            Gate Leakage = 0.00408109 W
            Runtime Dynamic = 0 W

          Free List:
            Area = 0.098125 mm^2
            Peak Dynamic = 0.0462146 W
            Subthreshold Leakage = 0.000618071 W
            Subthreshold Leakage with power gating = 0.000365734 W
            Gate Leakage = 6.01459e-05 W
            Runtime Dynamic = 0 W

      Load Store Unit:
        Area = 8.93636 mm^2
        Peak Dynamic = 0.494853 W
        Subthreshold Leakage = 0.243502 W
        Subthreshold Leakage with power gating = 0.125782 W
        Gate Leakage = 0.0309037 W
        Runtime Dynamic = 8.84239e-08 W

          Data Cache:
            Area = 6.93142 mm^2
            Peak Dynamic = 0.494853 W
            Subthreshold Leakage = 0.213789 W
            Subthreshold Leakage with power gating = 0.11029 W
            Gate Leakage = 0.0235117 W
            Runtime Dynamic = 0 W

          LoadQ:
            Area = 0.083675 mm^2
            Peak Dynamic = 0 W
            Subthreshold Leakage = 0.00378553 W
            Subthreshold Leakage with power gating = 0.00215775 W
            Gate Leakage = 0.000499133 W
            Runtime Dynamic = 0 W

          StoreQ:
            Area = 0.322068 mm^2
            Peak Dynamic = 0 W
            Subthreshold Leakage = 0.0138897 W
            Subthreshold Leakage with power gating = 0.00791712 W
            Gate Leakage = 0.00274976 W
            Runtime Dynamic = 0 W

      Memory Management Unit:
        Area = 0.216644 mm^2
        Peak Dynamic = 0.093117 W
        Subthreshold Leakage = 0.0221339 W
        Subthreshold Leakage with power gating = 0.0111719 W
        Gate Leakage = 0.00535145 W
        Runtime Dynamic = 8.84239e-08 W

          Itlb:
            Area = 0.0610812 mm^2
            Peak Dynamic = 0 W
            Subthreshold Leakage = 0.00383935 W
            Subthreshold Leakage with power gating = 0.00218843 W
            Gate Leakage = 0.000468934 W
            Runtime Dynamic = 0 W

          Dtlb:
            Area = 0.087971 mm^2
            Peak Dynamic = 0 W
            Subthreshold Leakage = 0.0062572 W
            Subthreshold Leakage with power gating = 0.0035666 W
            Gate Leakage = 0.000739408 W
            Runtime Dynamic = 0 W

      Execution Unit:
        Area = 11.56 mm^2
        Peak Dynamic = 3.86192 W
        Subthreshold Leakage = 0.883845 W
        Subthreshold Leakage with power gating = 0.408649 W
        Gate Leakage = 0.122793 W
        Runtime Dynamic = 0.422268 W

          Register Files:
            Area = 1.17013 mm^2
            Peak Dynamic = 0 W
            Subthreshold Leakage = 0.00774319 W
            Subthreshold Leakage with power gating = 0.00363493 W
            Gate Leakage = 0.000999271 W
            Runtime Dynamic = 0 W

              Integer RF:
                Area = 0.749997 mm^2
                Peak Dynamic = 0 W
                Subthreshold Leakage = 0.00484773 W
                Subthreshold Leakage with power gating = 0.00224312 W
                Gate Leakage = 0.000645553 W
                Runtime Dynamic = 0 W

              Floating Point RF:
                Area = 0.420137 mm^2
                Peak Dynamic = 0 W
                Subthreshold Leakage = 0.00289546 W
                Subthreshold Leakage with power gating = 0.0013918 W
                Gate Leakage = 0.000353718 W
                Runtime Dynamic = 0 W

          Instruction Scheduler:
            Area = 4.66183 mm^2
            Peak Dynamic = 3.86192 W
            Subthreshold Leakage = 0.0916813 W
            Subthreshold Leakage with power gating = 0.0520251 W
            Gate Leakage = 0.0120132 W
            Runtime Dynamic = 0 W

              Instruction Window:
                Area = 2.22085 mm^2
                Peak Dynamic = 1.8176 W
                Subthreshold Leakage = 0.0700879 W
                Subthreshold Leakage with power gating = 0.0399235 W
                Gate Leakage = 0.00960014 W
                Runtime Dynamic = 0 W

              FP Instruction Window:
                Area = 0.328065 mm^2
                Peak Dynamic = 0.497778 W
                Subthreshold Leakage = 0.00690732 W
                Subthreshold Leakage with power gating = 0.0039106 W
                Gate Leakage = 0.000979629 W
                Runtime Dynamic = 0 W

              ROB:
                Area = 2.11292 mm^2
                Peak Dynamic = 1.54653 W
                Subthreshold Leakage = 0.0146861 W
                Subthreshold Leakage with power gating = 0.00819096 W
                Gate Leakage = 0.00143341 W
                Runtime Dynamic = 0 W

          Integer ALUs (Count: 9 ):
            Area = 0.706306 mm^2
            Peak Dynamic = 0 W
            Subthreshold Leakage = 0.242465 W
            Subthreshold Leakage with power gating = 0.109109 W
            Gate Leakage = 0.0331614 W
            Runtime Dynamic = 0.070378 W

          Floating Point Units (FPUs) (Count: 2 ):
            Area = 4.6585 mm^2
            Peak Dynamic = 0 W
            Subthreshold Leakage = 0.3998 W
            Subthreshold Leakage with power gating = 0.17991 W
            Gate Leakage = 0.0546797 W
            Runtime Dynamic = 0.211134 W

          Complex ALUs (Mul/Div) (Count: 1 ):
            Area = 0.235435 mm^2
            Peak Dynamic = 0 W
            Subthreshold Leakage = 0.0808216 W
            Subthreshold Leakage with power gating = 0.0363697 W
            Gate Leakage = 0.0110538 W
            Runtime Dynamic = 0.140756 W

          Results Broadcast Bus:
            Area Overhead = 0.0602106 mm^2
            Peak Dynamic = 0 W
            Subthreshold Leakage = 0.0492971 W
            Subthreshold Leakage with power gating = 0.0221837 W
            Gate Leakage = 0.00674225 W
            Runtime Dynamic = 0 W

    L2
    Area = 8.77928 mm^2
    Peak Dynamic = 0 W
    Subthreshold Leakage = 0.797449 W
    Subthreshold Leakage with power gating = 0.44906 W
    Gate Leakage = 0.0171755 W
    Runtime Dynamic = 3.80955e-07 W

*****************************************************************************************
Core:
      Area = 43.2304 mm^2
      Peak Dynamic = 8.76183 W
      Subthreshold Leakage = 3.16961 W
      Subthreshold Leakage with power gating = 1.56596 W
      Gate Leakage = 0.350703 W
      Runtime Dynamic = 0.422269 W

      Instruction Fetch Unit:
        Area = 8.7823 mm^2
        Peak Dynamic = 1.62783 W
        Subthreshold Leakage = 0.433903 W
        Subthreshold Leakage with power gating = 0.213688 W
        Gate Leakage = 0.0624842 W
        Runtime Dynamic = 8.84239e-08 W

          Instruction Cache:
            Area = 4.95184 mm^2
            Peak Dynamic = 0 W
            Subthreshold Leakage = 0.197988 W
            Subthreshold Leakage with power gating = 0.10139 W
            Gate Leakage = 0.035734 W
            Runtime Dynamic = 0 W

          Branch Target Buffer:
            Area = 0.789969 mm^2
            Peak Dynamic = 0.0759001 W
            Subthreshold Leakage = 0.0368499 W
            Subthreshold Leakage with power gating = 0.021557 W
            Gate Leakage = 0.00333823 W
            Runtime Dynamic = 0 W

          Branch Predictor:
            Area = 0.139613 mm^2
            Peak Dynamic = 0.0253502 W
            Subthreshold Leakage = 0.00802563 W
            Subthreshold Leakage with power gating = 0.00469502 W
            Gate Leakage = 0.000631381 W
            Runtime Dynamic = 0 W

              Global Predictor:
                Area = 0.0443718 mm^2
                Peak Dynamic = 0.0073166 W
                Subthreshold Leakage = 0.00305314 W
                Subthreshold Leakage with power gating = 0.00178441 W
                Gate Leakage = 0.000231968 W
                Runtime Dynamic = 0 W

              Local Predictor:
              L1_Local Predictor:
                Area = 0.0264164 mm^2
                Peak Dynamic = 0.00596243 W
                Subthreshold Leakage = 0.00154459 W
                Subthreshold Leakage with power gating = 0.000902955 W
                Gate Leakage = 0.00012879 W
                Runtime Dynamic = 0 W

              L2_Local Predictor:
                Area = 0.0135618 mm^2
                Peak Dynamic = 0.00304081 W
                Subthreshold Leakage = 0.000782464 W
                Subthreshold Leakage with power gating = 0.000456083 W
                Gate Leakage = 6.76797e-05 W
                Runtime Dynamic = 0 W

              Chooser:
                Area = 0.0443718 mm^2
                Peak Dynamic = 0.0073166 W
                Subthreshold Leakage = 0.00305314 W
                Subthreshold Leakage with power gating = 0.00178441 W
                Gate Leakage = 0.000231968 W
                Runtime Dynamic = 0 W

              RAS:
                Area = 0.0108915 mm^2
                Peak Dynamic = 0.00475453 W
                Subthreshold Leakage = 0.000374753 W
                Subthreshold Leakage with power gating = 0.000223242 W
                Gate Leakage = 3.86548e-05 W
                Runtime Dynamic = 0 W

          Instruction Buffer:
            Area = 0.0463126 mm^2
            Peak Dynamic = 0.719463 W
            Subthreshold Leakage = 0.000993296 W
            Subthreshold Leakage with power gating = 0.000525149 W
            Gate Leakage = 9.63964e-05 W
            Runtime Dynamic = 0 W

          Instruction Decoder:
            Area = 2.78698 mm^2
            Peak Dynamic = 0.807118 W
            Subthreshold Leakage = 0.178009 W
            Subthreshold Leakage with power gating = 0.080104 W
            Gate Leakage = 0.0185411 W
            Runtime Dynamic = 0 W

      Renaming Unit:
        Area = 0.55916 mm^2
        Peak Dynamic = 2.68412 W
        Subthreshold Leakage = 0.0341099 W
        Subthreshold Leakage with power gating = 0.0180116 W
        Gate Leakage = 0.00878169 W
        Runtime Dynamic = 8.84239e-08 W

          Int Front End RAT:
            Area = 0.224957 mm^2
            Peak Dynamic = 0.988468 W
            Subthreshold Leakage = 0.00388114 W
            Subthreshold Leakage with power gating = 0.00221225 W
            Gate Leakage = 0.000497349 W
            Runtime Dynamic = 0 W

          FP Front End RAT:
            Area = 0.168486 mm^2
            Peak Dynamic = 1.4632 W
            Subthreshold Leakage = 0.0175733 W
            Subthreshold Leakage with power gating = 0.0100168 W
            Gate Leakage = 0.00408109 W
            Runtime Dynamic = 0 W

          Free List:
            Area = 0.098125 mm^2
            Peak Dynamic = 0.0462146 W
            Subthreshold Leakage = 0.000618071 W
            Subthreshold Leakage with power gating = 0.000365734 W
            Gate Leakage = 6.01459e-05 W
            Runtime Dynamic = 0 W

      Load Store Unit:
        Area = 8.93636 mm^2
        Peak Dynamic = 0.494853 W
        Subthreshold Leakage = 0.243502 W
        Subthreshold Leakage with power gating = 0.125782 W
        Gate Leakage = 0.0309037 W
        Runtime Dynamic = 8.84239e-08 W

          Data Cache:
            Area = 6.93142 mm^2
            Peak Dynamic = 0.494853 W
            Subthreshold Leakage = 0.213789 W
            Subthreshold Leakage with power gating = 0.11029 W
            Gate Leakage = 0.0235117 W
            Runtime Dynamic = 0 W

          LoadQ:
            Area = 0.083675 mm^2
            Peak Dynamic = 0 W
            Subthreshold Leakage = 0.00378553 W
            Subthreshold Leakage with power gating = 0.00215775 W
            Gate Leakage = 0.000499133 W
            Runtime Dynamic = 0 W

          StoreQ:
            Area = 0.322068 mm^2
            Peak Dynamic = 0 W
            Subthreshold Leakage = 0.0138897 W
            Subthreshold Leakage with power gating = 0.00791712 W
            Gate Leakage = 0.00274976 W
            Runtime Dynamic = 0 W

      Memory Management Unit:
        Area = 0.216644 mm^2
        Peak Dynamic = 0.093117 W
        Subthreshold Leakage = 0.0221339 W
        Subthreshold Leakage with power gating = 0.0111719 W
        Gate Leakage = 0.00535145 W
        Runtime Dynamic = 8.84239e-08 W

          Itlb:
            Area = 0.0610812 mm^2
            Peak Dynamic = 0 W
            Subthreshold Leakage = 0.00383935 W
            Subthreshold Leakage with power gating = 0.00218843 W
            Gate Leakage = 0.000468934 W
            Runtime Dynamic = 0 W

          Dtlb:
            Area = 0.087971 mm^2
            Peak Dynamic = 0 W
            Subthreshold Leakage = 0.0062572 W
            Subthreshold Leakage with power gating = 0.0035666 W
            Gate Leakage = 0.000739408 W
            Runtime Dynamic = 0 W

      Execution Unit:
        Area = 11.56 mm^2
        Peak Dynamic = 3.86192 W
        Subthreshold Leakage = 0.883845 W
        Subthreshold Leakage with power gating = 0.408649 W
        Gate Leakage = 0.122793 W
        Runtime Dynamic = 0.422268 W

          Register Files:
            Area = 1.17013 mm^2
            Peak Dynamic = 0 W
            Subthreshold Leakage = 0.00774319 W
            Subthreshold Leakage with power gating = 0.00363493 W
            Gate Leakage = 0.000999271 W
            Runtime Dynamic = 0 W

              Integer RF:
                Area = 0.749997 mm^2
                Peak Dynamic = 0 W
                Subthreshold Leakage = 0.00484773 W
                Subthreshold Leakage with power gating = 0.00224312 W
                Gate Leakage = 0.000645553 W
                Runtime Dynamic = 0 W

              Floating Point RF:
                Area = 0.420137 mm^2
                Peak Dynamic = 0 W
                Subthreshold Leakage = 0.00289546 W
                Subthreshold Leakage with power gating = 0.0013918 W
                Gate Leakage = 0.000353718 W
                Runtime Dynamic = 0 W

          Instruction Scheduler:
            Area = 4.66183 mm^2
            Peak Dynamic = 3.86192 W
            Subthreshold Leakage = 0.0916813 W
            Subthreshold Leakage with power gating = 0.0520251 W
            Gate Leakage = 0.0120132 W
            Runtime Dynamic = 0 W

              Instruction Window:
                Area = 2.22085 mm^2
                Peak Dynamic = 1.8176 W
                Subthreshold Leakage = 0.0700879 W
                Subthreshold Leakage with power gating = 0.0399235 W
                Gate Leakage = 0.00960014 W
                Runtime Dynamic = 0 W

              FP Instruction Window:
                Area = 0.328065 mm^2
                Peak Dynamic = 0.497778 W
                Subthreshold Leakage = 0.00690732 W
                Subthreshold Leakage with power gating = 0.0039106 W
                Gate Leakage = 0.000979629 W
                Runtime Dynamic = 0 W

              ROB:
                Area = 2.11292 mm^2
                Peak Dynamic = 1.54653 W
                Subthreshold Leakage = 0.0146861 W
                Subthreshold Leakage with power gating = 0.00819096 W
                Gate Leakage = 0.00143341 W
                Runtime Dynamic = 0 W

          Integer ALUs (Count: 9 ):
            Area = 0.706306 mm^2
            Peak Dynamic = 0 W
            Subthreshold Leakage = 0.242465 W
            Subthreshold Leakage with power gating = 0.109109 W
            Gate Leakage = 0.0331614 W
            Runtime Dynamic = 0.070378 W

          Floating Point Units (FPUs) (Count: 2 ):
            Area = 4.6585 mm^2
            Peak Dynamic = 0 W
            Subthreshold Leakage = 0.3998 W
            Subthreshold Leakage with power gating = 0.17991 W
            Gate Leakage = 0.0546797 W
            Runtime Dynamic = 0.211134 W

          Complex ALUs (Mul/Div) (Count: 1 ):
            Area = 0.235435 mm^2
            Peak Dynamic = 0 W
            Subthreshold Leakage = 0.0808216 W
            Subthreshold Leakage with power gating = 0.0363697 W
            Gate Leakage = 0.0110538 W
            Runtime Dynamic = 0.140756 W

          Results Broadcast Bus:
            Area Overhead = 0.0602106 mm^2
            Peak Dynamic = 0 W
            Subthreshold Leakage = 0.0492971 W
            Subthreshold Leakage with power gating = 0.0221837 W
            Gate Leakage = 0.00674225 W
            Runtime Dynamic = 0 W

    L2
    Area = 8.77928 mm^2
    Peak Dynamic = 0 W
    Subthreshold Leakage = 0.797449 W
    Subthreshold Leakage with power gating = 0.44906 W
    Gate Leakage = 0.0171755 W
    Runtime Dynamic = 3.80955e-07 W

*****************************************************************************************
Core:
      Area = 43.2304 mm^2
      Peak Dynamic = 8.76183 W
      Subthreshold Leakage = 3.16961 W
      Subthreshold Leakage with power gating = 1.56596 W
      Gate Leakage = 0.350703 W
      Runtime Dynamic = 0.422269 W

      Instruction Fetch Unit:
        Area = 8.7823 mm^2
        Peak Dynamic = 1.62783 W
        Subthreshold Leakage = 0.433903 W
        Subthreshold Leakage with power gating = 0.213688 W
        Gate Leakage = 0.0624842 W
        Runtime Dynamic = 8.84239e-08 W

          Instruction Cache:
            Area = 4.95184 mm^2
            Peak Dynamic = 0 W
            Subthreshold Leakage = 0.197988 W
            Subthreshold Leakage with power gating = 0.10139 W
            Gate Leakage = 0.035734 W
            Runtime Dynamic = 0 W

          Branch Target Buffer:
            Area = 0.789969 mm^2
            Peak Dynamic = 0.0759001 W
            Subthreshold Leakage = 0.0368499 W
            Subthreshold Leakage with power gating = 0.021557 W
            Gate Leakage = 0.00333823 W
            Runtime Dynamic = 0 W

          Branch Predictor:
            Area = 0.139613 mm^2
            Peak Dynamic = 0.0253502 W
            Subthreshold Leakage = 0.00802563 W
            Subthreshold Leakage with power gating = 0.00469502 W
            Gate Leakage = 0.000631381 W
            Runtime Dynamic = 0 W

              Global Predictor:
                Area = 0.0443718 mm^2
                Peak Dynamic = 0.0073166 W
                Subthreshold Leakage = 0.00305314 W
                Subthreshold Leakage with power gating = 0.00178441 W
                Gate Leakage = 0.000231968 W
                Runtime Dynamic = 0 W

              Local Predictor:
              L1_Local Predictor:
                Area = 0.0264164 mm^2
                Peak Dynamic = 0.00596243 W
                Subthreshold Leakage = 0.00154459 W
                Subthreshold Leakage with power gating = 0.000902955 W
                Gate Leakage = 0.00012879 W
                Runtime Dynamic = 0 W

              L2_Local Predictor:
                Area = 0.0135618 mm^2
                Peak Dynamic = 0.00304081 W
                Subthreshold Leakage = 0.000782464 W
                Subthreshold Leakage with power gating = 0.000456083 W
                Gate Leakage = 6.76797e-05 W
                Runtime Dynamic = 0 W

              Chooser:
                Area = 0.0443718 mm^2
                Peak Dynamic = 0.0073166 W
                Subthreshold Leakage = 0.00305314 W
                Subthreshold Leakage with power gating = 0.00178441 W
                Gate Leakage = 0.000231968 W
                Runtime Dynamic = 0 W

              RAS:
                Area = 0.0108915 mm^2
                Peak Dynamic = 0.00475453 W
                Subthreshold Leakage = 0.000374753 W
                Subthreshold Leakage with power gating = 0.000223242 W
                Gate Leakage = 3.86548e-05 W
                Runtime Dynamic = 0 W

          Instruction Buffer:
            Area = 0.0463126 mm^2
            Peak Dynamic = 0.719463 W
            Subthreshold Leakage = 0.000993296 W
            Subthreshold Leakage with power gating = 0.000525149 W
            Gate Leakage = 9.63964e-05 W
            Runtime Dynamic = 0 W

          Instruction Decoder:
            Area = 2.78698 mm^2
            Peak Dynamic = 0.807118 W
            Subthreshold Leakage = 0.178009 W
            Subthreshold Leakage with power gating = 0.080104 W
            Gate Leakage = 0.0185411 W
            Runtime Dynamic = 0 W

      Renaming Unit:
        Area = 0.55916 mm^2
        Peak Dynamic = 2.68412 W
        Subthreshold Leakage = 0.0341099 W
        Subthreshold Leakage with power gating = 0.0180116 W
        Gate Leakage = 0.00878169 W
        Runtime Dynamic = 8.84239e-08 W

          Int Front End RAT:
            Area = 0.224957 mm^2
            Peak Dynamic = 0.988468 W
            Subthreshold Leakage = 0.00388114 W
            Subthreshold Leakage with power gating = 0.00221225 W
            Gate Leakage = 0.000497349 W
            Runtime Dynamic = 0 W

          FP Front End RAT:
            Area = 0.168486 mm^2
            Peak Dynamic = 1.4632 W
            Subthreshold Leakage = 0.0175733 W
            Subthreshold Leakage with power gating = 0.0100168 W
            Gate Leakage = 0.00408109 W
            Runtime Dynamic = 0 W

          Free List:
            Area = 0.098125 mm^2
            Peak Dynamic = 0.0462146 W
            Subthreshold Leakage = 0.000618071 W
            Subthreshold Leakage with power gating = 0.000365734 W
            Gate Leakage = 6.01459e-05 W
            Runtime Dynamic = 0 W

      Load Store Unit:
        Area = 8.93636 mm^2
        Peak Dynamic = 0.494853 W
        Subthreshold Leakage = 0.243502 W
        Subthreshold Leakage with power gating = 0.125782 W
        Gate Leakage = 0.0309037 W
        Runtime Dynamic = 8.84239e-08 W

          Data Cache:
            Area = 6.93142 mm^2
            Peak Dynamic = 0.494853 W
            Subthreshold Leakage = 0.213789 W
[...]
        Runtime Dynamic = 8.84239e-08 W

          Data Cache:
            Area = 6.93142 mm^2
            Peak Dynamic = 0.494853 W
            Subthreshold Leakage = 0.213789 W
            Subthreshold Leakage with power gating = 0.11029 W
            Gate Leakage = 0.0235117 W
            Runtime Dynamic = 0 W

          LoadQ:
            Area = 0.083675 mm^2
            Peak Dynamic = 0 W
            Subthreshold Leakage = 0.00378553 W
            Subthreshold Leakage with power gating = 0.00215775 W
            Gate Leakage = 0.000499133 W
            Runtime Dynamic = 0 W

          StoreQ:
            Area = 0.322068 mm^2
            Peak Dynamic = 0 W
            Subthreshold Leakage = 0.0138897 W
            Subthreshold Leakage with power gating = 0.00791712 W
            Gate Leakage = 0.00274976 W
            Runtime Dynamic = 0 W

      Memory Management Unit:
        Area = 0.216644 mm^2
        Peak Dynamic = 0.093117 W
        Subthreshold Leakage = 0.0221339 W
        Subthreshold Leakage with power gating = 0.0111719 W
        Gate Leakage = 0.00535145 W
        Runtime Dynamic = 8.84239e-08 W

          Itlb:
            Area = 0.0610812 mm^2
            Peak Dynamic = 0 W
            Subthreshold Leakage = 0.00383935 W
            Subthreshold Leakage with power gating = 0.00218843 W
            Gate Leakage = 0.000468934 W
            Runtime Dynamic = 0 W

          Dtlb:
            Area = 0.087971 mm^2
            Peak Dynamic = 0 W
            Subthreshold Leakage = 0.0062572 W
            Subthreshold Leakage with power gating = 0.0035666 W
            Gate Leakage = 0.000739408 W
            Runtime Dynamic = 0 W

      Execution Unit:
        Area = 11.56 mm^2
        Peak Dynamic = 3.86192 W
        Subthreshold Leakage = 0.883845 W
        Subthreshold Leakage with power gating = 0.408649 W
        Gate Leakage = 0.122793 W
        Runtime Dynamic = 0.422268 W

          Register Files:
            Area = 1.17013 mm^2
            Peak Dynamic = 0 W
            Subthreshold Leakage = 0.00774319 W
            Subthreshold Leakage with power gating = 0.00363493 W
            Gate Leakage = 0.000999271 W
            Runtime Dynamic = 0 W

              Integer RF:
                Area = 0.749997 mm^2
                Peak Dynamic = 0 W
                Subthreshold Leakage = 0.00484773 W
                Subthreshold Leakage with power gating = 0.00224312 W
                Gate Leakage = 0.000645553 W
                Runtime Dynamic = 0 W

              Floating Point RF:
                Area = 0.420137 mm^2
                Peak Dynamic = 0 W
                Subthreshold Leakage = 0.00289546 W
                Subthreshold Leakage with power gating = 0.0013918 W
                Gate Leakage = 0.000353718 W
                Runtime Dynamic = 0 W

          Instruction Scheduler:
            Area = 4.66183 mm^2
            Peak Dynamic = 3.86192 W
            Subthreshold Leakage = 0.0916813 W
            Subthreshold Leakage with power gating = 0.0520251 W
            Gate Leakage = 0.0120132 W
            Runtime Dynamic = 0 W

              Instruction Window:
                Area = 2.22085 mm^2
                Peak Dynamic = 1.8176 W
                Subthreshold Leakage = 0.0700879 W
                Subthreshold Leakage with power gating = 0.0399235 W
                Gate Leakage = 0.00960014 W
                Runtime Dynamic = 0 W

              FP Instruction Window:
                Area = 0.328065 mm^2
                Peak Dynamic = 0.497778 W
                Subthreshold Leakage = 0.00690732 W
                Subthreshold Leakage with power gating = 0.0039106 W
                Gate Leakage = 0.000979629 W
                Runtime Dynamic = 0 W

              ROB:
                Area = 2.11292 mm^2
                Peak Dynamic = 1.54653 W
                Subthreshold Leakage = 0.0146861 W
                Subthreshold Leakage with power gating = 0.00819096 W
                Gate Leakage = 0.00143341 W
                Runtime Dynamic = 0 W

          Integer ALUs (Count: 9 ):
            Area = 0.706306 mm^2
            Peak Dynamic = 0 W
            Subthreshold Leakage = 0.242465 W
            Subthreshold Leakage with power gating = 0.109109 W
            Gate Leakage = 0.0331614 W
            Runtime Dynamic = 0.070378 W

          Floating Point Units (FPUs) (Count: 2 ):
            Area = 4.6585 mm^2
            Peak Dynamic = 0 W
            Subthreshold Leakage = 0.3998 W
            Subthreshold Leakage with power gating = 0.17991 W
            Gate Leakage = 0.0546797 W
            Runtime Dynamic = 0.211134 W

          Complex ALUs (Mul/Div) (Count: 1 ):
            Area = 0.235435 mm^2
            Peak Dynamic = 0 W
            Subthreshold Leakage = 0.0808216 W
            Subthreshold Leakage with power gating = 0.0363697 W
            Gate Leakage = 0.0110538 W
            Runtime Dynamic = 0.140756 W

          Results Broadcast Bus:
            Area Overhead = 0.0602106 mm^2
            Peak Dynamic = 0 W
            Subthreshold Leakage = 0.0492971 W
            Subthreshold Leakage with power gating = 0.0221837 W
            Gate Leakage = 0.00674225 W
            Runtime Dynamic = 0 W

    L2
    Area = 8.77928 mm^2
    Peak Dynamic = 0 W
    Subthreshold Leakage = 0.797449 W
    Subthreshold Leakage with power gating = 0.44906 W
    Gate Leakage = 0.0171755 W
    Runtime Dynamic = 3.80955e-07 W

*****************************************************************************************
Core:
      Area = 43.2304 mm^2
      Peak Dynamic = 8.76183 W
      Subthreshold Leakage = 3.16961 W
      Subthreshold Leakage with power gating = 1.56596 W
      Gate Leakage = 0.350703 W
      Runtime Dynamic = 0.422269 W

      Instruction Fetch Unit:
        Area = 8.7823 mm^2
        Peak Dynamic = 1.62783 W
        Subthreshold Leakage = 0.433903 W
        Subthreshold Leakage with power gating = 0.213688 W
        Gate Leakage = 0.0624842 W
        Runtime Dynamic = 8.84239e-08 W

          Instruction Cache:
            Area = 4.95184 mm^2
            Peak Dynamic = 0 W
            Subthreshold Leakage = 0.197988 W
            Subthreshold Leakage with power gating = 0.10139 W
            Gate Leakage = 0.035734 W
            Runtime Dynamic = 0 W

          Branch Target Buffer:
            Area = 0.789969 mm^2
            Peak Dynamic = 0.0759001 W
            Subthreshold Leakage = 0.0368499 W
            Subthreshold Leakage with power gating = 0.021557 W
            Gate Leakage = 0.00333823 W
            Runtime Dynamic = 0 W

          Branch Predictor:
            Area = 0.139613 mm^2
            Peak Dynamic = 0.0253502 W
            Subthreshold Leakage = 0.00802563 W
            Subthreshold Leakage with power gating = 0.00469502 W
            Gate Leakage = 0.000631381 W
            Runtime Dynamic = 0 W

              Global Predictor:
                Area = 0.0443718 mm^2
                Peak Dynamic = 0.0073166 W
                Subthreshold Leakage = 0.00305314 W
                Subthreshold Leakage with power gating = 0.00178441 W
                Gate Leakage = 0.000231968 W
                Runtime Dynamic = 0 W

              Local Predictor:
              L1_Local Predictor:
                Area = 0.0264164 mm^2
                Peak Dynamic = 0.00596243 W
                Subthreshold Leakage = 0.00154459 W
                Subthreshold Leakage with power gating = 0.000902955 W
                Gate Leakage = 0.00012879 W
                Runtime Dynamic = 0 W

              L2_Local Predictor:
                Area = 0.0135618 mm^2
                Peak Dynamic = 0.00304081 W
                Subthreshold Leakage = 0.000782464 W
                Subthreshold Leakage with power gating = 0.000456083 W
                Gate Leakage = 6.76797e-05 W
                Runtime Dynamic = 0 W

              Chooser:
                Area = 0.0443718 mm^2
                Peak Dynamic = 0.0073166 W
                Subthreshold Leakage = 0.00305314 W
                Subthreshold Leakage with power gating = 0.00178441 W
                Gate Leakage = 0.000231968 W
                Runtime Dynamic = 0 W

              RAS:
                Area = 0.0108915 mm^2
                Peak Dynamic = 0.00475453 W
                Subthreshold Leakage = 0.000374753 W
                Subthreshold Leakage with power gating = 0.000223242 W
                Gate Leakage = 3.86548e-05 W
                Runtime Dynamic = 0 W

          Instruction Buffer:
            Area = 0.0463126 mm^2
            Peak Dynamic = 0.719463 W
            Subthreshold Leakage = 0.000993296 W
            Subthreshold Leakage with power gating = 0.000525149 W
            Gate Leakage = 9.63964e-05 W
            Runtime Dynamic = 0 W

          Instruction Decoder:
            Area = 2.78698 mm^2
            Peak Dynamic = 0.807118 W
            Subthreshold Leakage = 0.178009 W
            Subthreshold Leakage with power gating = 0.080104 W
            Gate Leakage = 0.0185411 W
            Runtime Dynamic = 0 W

      Renaming Unit:
        Area = 0.55916 mm^2
        Peak Dynamic = 2.68412 W
        Subthreshold Leakage = 0.0341099 W
        Subthreshold Leakage with power gating = 0.0180116 W
        Gate Leakage = 0.00878169 W
        Runtime Dynamic = 8.84239e-08 W

          Int Front End RAT:
            Area = 0.224957 mm^2
            Peak Dynamic = 0.988468 W
            Subthreshold Leakage = 0.00388114 W
            Subthreshold Leakage with power gating = 0.00221225 W
            Gate Leakage = 0.000497349 W
            Runtime Dynamic = 0 W

          FP Front End RAT:
            Area = 0.168486 mm^2
            Peak Dynamic = 1.4632 W
            Subthreshold Leakage = 0.0175733 W
            Subthreshold Leakage with power gating = 0.0100168 W
            Gate Leakage = 0.00408109 W
            Runtime Dynamic = 0 W

          Free List:
            Area = 0.098125 mm^2
            Peak Dynamic = 0.0462146 W
            Subthreshold Leakage = 0.000618071 W
            Subthreshold Leakage with power gating = 0.000365734 W
            Gate Leakage = 6.01459e-05 W
            Runtime Dynamic = 0 W

      Load Store Unit:
        Area = 8.93636 mm^2
        Peak Dynamic = 0.494853 W
        Subthreshold Leakage = 0.243502 W
        Subthreshold Leakage with power gating = 0.125782 W
        Gate Leakage = 0.0309037 W
        Runtime Dynamic = 8.84239e-08 W

          Data Cache:
            Area = 6.93142 mm^2
            Peak Dynamic = 0.494853 W
            Subthreshold Leakage = 0.213789 W
            Subthreshold Leakage with power gating = 0.11029 W
            Gate Leakage = 0.0235117 W
            Runtime Dynamic = 0 W

          LoadQ:
            Area = 0.083675 mm^2
            Peak Dynamic = 0 W
            Subthreshold Leakage = 0.00378553 W
            Subthreshold Leakage with power gating = 0.00215775 W
            Gate Leakage = 0.000499133 W
            Runtime Dynamic = 0 W

          StoreQ:
            Area = 0.322068 mm^2
            Peak Dynamic = 0 W
            Subthreshold Leakage = 0.0138897 W
            Subthreshold Leakage with power gating = 0.00791712 W
            Gate Leakage = 0.00274976 W
            Runtime Dynamic = 0 W

      Memory Management Unit:
        Area = 0.216644 mm^2
        Peak Dynamic = 0.093117 W
        Subthreshold Leakage = 0.0221339 W
        Subthreshold Leakage with power gating = 0.0111719 W
        Gate Leakage = 0.00535145 W
        Runtime Dynamic = 8.84239e-08 W

          Itlb:
            Area = 0.0610812 mm^2
            Peak Dynamic = 0 W
            Subthreshold Leakage = 0.00383935 W
            Subthreshold Leakage with power gating = 0.00218843 W
            Gate Leakage = 0.000468934 W
            Runtime Dynamic = 0 W

          Dtlb:
            Area = 0.087971 mm^2
            Peak Dynamic = 0 W
            Subthreshold Leakage = 0.0062572 W
            Subthreshold Leakage with power gating = 0.0035666 W
            Gate Leakage = 0.000739408 W
            Runtime Dynamic = 0 W

      Execution Unit:
        Area = 11.56 mm^2
        Peak Dynamic = 3.86192 W
        Subthreshold Leakage = 0.883845 W
        Subthreshold Leakage with power gating = 0.408649 W
        Gate Leakage = 0.122793 W
        Runtime Dynamic = 0.422268 W

          Register Files:
            Area = 1.17013 mm^2
            Peak Dynamic = 0 W
            Subthreshold Leakage = 0.00774319 W
            Subthreshold Leakage with power gating = 0.00363493 W
            Gate Leakage = 0.000999271 W
            Runtime Dynamic = 0 W

              Integer RF:
                Area = 0.749997 mm^2
                Peak Dynamic = 0 W
                Subthreshold Leakage = 0.00484773 W
                Subthreshold Leakage with power gating = 0.00224312 W
                Gate Leakage = 0.000645553 W
                Runtime Dynamic = 0 W

              Floating Point RF:
                Area = 0.420137 mm^2
                Peak Dynamic = 0 W
                Subthreshold Leakage = 0.00289546 W
                Subthreshold Leakage with power gating = 0.0013918 W
                Gate Leakage = 0.000353718 W
                Runtime Dynamic = 0 W

          Instruction Scheduler:
            Area = 4.66183 mm^2
            Peak Dynamic = 3.86192 W
            Subthreshold Leakage = 0.0916813 W
            Subthreshold Leakage with power gating = 0.0520251 W
            Gate Leakage = 0.0120132 W
            Runtime Dynamic = 0 W

              Instruction Window:
                Area = 2.22085 mm^2
                Peak Dynamic = 1.8176 W
                Subthreshold Leakage = 0.0700879 W
                Subthreshold Leakage with power gating = 0.0399235 W
                Gate Leakage = 0.00960014 W
                Runtime Dynamic = 0 W

              FP Instruction Window:
                Area = 0.328065 mm^2
                Peak Dynamic = 0.497778 W
                Subthreshold Leakage = 0.00690732 W
                Subthreshold Leakage with power gating = 0.0039106 W
                Gate Leakage = 0.000979629 W
                Runtime Dynamic = 0 W

              ROB:
                Area = 2.11292 mm^2
                Peak Dynamic = 1.54653 W
                Subthreshold Leakage = 0.0146861 W
                Subthreshold Leakage with power gating = 0.00819096 W
                Gate Leakage = 0.00143341 W
                Runtime Dynamic = 0 W

          Integer ALUs (Count: 9 ):
            Area = 0.706306 mm^2
            Peak Dynamic = 0 W
            Subthreshold Leakage = 0.242465 W
            Subthreshold Leakage with power gating = 0.109109 W
            Gate Leakage = 0.0331614 W
            Runtime Dynamic = 0.070378 W

          Floating Point Units (FPUs) (Count: 2 ):
            Area = 4.6585 mm^2
            Peak Dynamic = 0 W
            Subthreshold Leakage = 0.3998 W
            Subthreshold Leakage with power gating = 0.17991 W
            Gate Leakage = 0.0546797 W
            Runtime Dynamic = 0.211134 W

          Complex ALUs (Mul/Div) (Count: 1 ):
            Area = 0.235435 mm^2
            Peak Dynamic = 0 W
            Subthreshold Leakage = 0.0808216 W
            Subthreshold Leakage with power gating = 0.0363697 W
            Gate Leakage = 0.0110538 W
            Runtime Dynamic = 0.140756 W

          Results Broadcast Bus:
            Area Overhead = 0.0602106 mm^2
            Peak Dynamic = 0 W
            Subthreshold Leakage = 0.0492971 W
            Subthreshold Leakage with power gating = 0.0221837 W
            Gate Leakage = 0.00674225 W
            Runtime Dynamic = 0 W

    L2
    Area = 8.77928 mm^2
    Peak Dynamic = 0 W
    Subthreshold Leakage = 0.797449 W
    Subthreshold Leakage with power gating = 0.44906 W
    Gate Leakage = 0.0171755 W
    Runtime Dynamic = 3.80955e-07 W

*****************************************************************************************
      L3
      Area = 227.378 mm^2
      Peak Dynamic = 0.0407747 W
      Subthreshold Leakage = 9.30012 W
      Subthreshold Leakage with power gating = 5.44842 W
      Gate Leakage = 0.105133 W
      Runtime Dynamic = 0.00744748 W

*****************************************************************************************
      L3
      Area = 227.378 mm^2
      Peak Dynamic = 0 W
      Subthreshold Leakage = 9.30012 W
      Subthreshold Leakage with power gating = 5.44842 W
      Gate Leakage = 0.105133 W
      Runtime Dynamic = 3.80955e-07 W

*****************************************************************************************
      L3
      Area = 227.378 mm^2
      Peak Dynamic = 0 W
      Subthreshold Leakage = 9.30012 W
      Subthreshold Leakage with power gating = 5.44842 W
      Gate Leakage = 0.105133 W
      Runtime Dynamic = 3.80955e-07 W

*****************************************************************************************
      L3
      Area = 227.378 mm^2
      Peak Dynamic = 0 W
      Subthreshold Leakage = 9.30012 W
      Subthreshold Leakage with power gating = 5.44842 W
      Gate Leakage = 0.105133 W
      Runtime Dynamic = 3.80955e-07 W

*****************************************************************************************
      L3
      Area = 227.378 mm^2
      Peak Dynamic = 0 W
      Subthreshold Leakage = 9.30012 W
      Subthreshold Leakage with power gating = 5.44842 W
      Gate Leakage = 0.105133 W
      Runtime Dynamic = 3.80955e-07 W

*****************************************************************************************
      L3
      Area = 227.378 mm^2
      Peak Dynamic = 0 W
      Subthreshold Leakage = 9.30012 W
      Subthreshold Leakage with power gating = 5.44842 W
      Gate Leakage = 0.105133 W
      Runtime Dynamic = 3.80955e-07 W

*****************************************************************************************
      L3
      Area = 227.378 mm^2
      Peak Dynamic = 0 W
      Subthreshold Leakage = 9.30012 W
      Subthreshold Leakage with power gating = 5.44842 W
      Gate Leakage = 0.105133 W
      Runtime Dynamic = 3.80955e-07 W

*****************************************************************************************
      L3
      Area = 227.378 mm^2
      Peak Dynamic = 0 W
      Subthreshold Leakage = 9.30012 W
      Subthreshold Leakage with power gating = 5.44842 W
      Gate Leakage = 0.105133 W
      Runtime Dynamic = 3.80955e-07 W

*****************************************************************************************
NOC
      Area = 0.171962 mm^2
      Peak Dynamic = 0.0589061 W
      Subthreshold Leakage = 0.00221693 W
      Subthreshold Leakage with power gating = 0.00126365 W
      Gate Leakage = 0.00055251 W
      Runtime Dynamic = 0.000267753 W

      Router: 
        Area = 0.171962 mm^2
        Peak Dynamic = 0.0589061 W
        Subthreshold Leakage = 0.00221693 W
        Subthreshold Leakage with power gating = 0.00126365 W
        Gate Leakage = 0.00055251 W
        Runtime Dynamic = 0.000267753 W

            Virtual Channel Buffer:
              Area = 0.135667 mm^2
              Peak Dynamic = 0.0449516 W
              Subthreshold Leakage = 0.000916414 W
              Subthreshold Leakage with power gating = 0.000522356 W
              Gate Leakage = 0.000182813 W
              Runtime Dynamic = 0.000204324 W

            Crossbar:
              Area = 0.00849347 mm^2
              Peak Dynamic = 0.0139095 W
              Subthreshold Leakage = 0.00130024 W
              Subthreshold Leakage with power gating = 0.000741134 W
              Gate Leakage = 0.00036964 W
              Runtime Dynamic = 6.32245e-05 W

            Arbiter:
              Peak Dynamic = 4.50347e-05 W
              Subthreshold Leakage = 2.78892e-07 W
              Subthreshold Leakage with power gating = 0.000741134 W
              Gate Leakage = 5.77384e-08 W
              Runtime Dynamic = 2.04701e-07 W

*****************************************************************************************
